lig_ejm_0
     RDKit          3D

 45 48  0  0  0  0  0  0  0  0999 V2000
    5.7519   25.1032    4.0526 Br  0  0  0  0  0  0  0  0  0  0  0  0
    4.7741   25.8575    5.5168 C   0  0  0  0  0  0  0  0  0  0  0  0
    4.8007   25.2374    6.7717 C   0  0  0  0  0  0  0  0  0  0  0  0
    4.0859   25.7835    7.8442 C   0  0  0  0  0  0  0  0  0  0  0  0
    3.3191   26.9390    7.6498 C   0  0  0  0  0  0  0  0  0  0  0  0
    3.2597   27.5457    6.3945 C   0  0  0  0  0  0  0  0  0  0  0  0
    2.4872   28.6757    6.1571 N   0  0  0  0  0  0  0  0  0  0  0  0
    1.3917   29.0950    6.8083 C   0  0  0  0  0  0  0  0  0  0  0  0
    0.6167   28.2393    7.4182 N   0  0  0  0  0  0  0  0  0  0  0  0
   -0.4791   28.7303    8.0142 C   0  0  0  0  0  0  0  0  0  0  0  0
   -1.2604   27.8808    8.7530 O   0  0  0  0  0  0  0  0  0  0  0  0
   -0.6179   26.6253    9.0307 C   0  0  0  0  0  0  0  0  0  0  0  0
   -1.2507   25.7471   10.1104 C   0  0  0  0  0  0  0  0  0  0  0  0
   -1.3396   24.3094    9.5574 C   0  0  0  0  0  0  0  0  0  0  0  0
   -1.6817   23.2650   10.6170 C   0  0  0  0  0  0  0  0  0  0  0  0
   -0.7789   23.3619   11.8494 C   0  0  0  0  0  0  0  0  0  0  0  0
   -0.7380   24.7771   12.4336 C   0  0  0  0  0  0  0  0  0  0  0  0
   -0.3873   25.8306   11.3829 C   0  0  0  0  0  0  0  0  0  0  0  0
   -0.5033   26.8243   11.8217 H   0  0  0  0  0  0  0  0  0  0  0  0
    0.6688   25.7202   11.1146 H   0  0  0  0  0  0  0  0  0  0  0  0
   -1.7091   25.0178   12.8776 H   0  0  0  0  0  0  0  0  0  0  0  0
    0.0088   24.8149   13.2337 H   0  0  0  0  0  0  0  0  0  0  0  0
    0.2366   23.0413   11.5924 H   0  0  0  0  0  0  0  0  0  0  0  0
   -1.1522   22.6762   12.6127 H   0  0  0  0  0  0  0  0  0  0  0  0
   -1.5806   22.2677   10.1744 H   0  0  0  0  0  0  0  0  0  0  0  0
   -2.7255   23.3927   10.9226 H   0  0  0  0  0  0  0  0  0  0  0  0
   -2.1022   24.2776    8.7724 H   0  0  0  0  0  0  0  0  0  0  0  0
   -0.3872   24.0393    9.0894 H   0  0  0  0  0  0  0  0  0  0  0  0
   -2.2619   26.1003   10.3247 H   0  0  0  0  0  0  0  0  0  0  0  0
    0.4268   26.8137    9.3053 H   0  0  0  0  0  0  0  0  0  0  0  0
   -0.6278   26.0510    8.1106 H   0  0  0  0  0  0  0  0  0  0  0  0
   -0.8154   30.0864    7.9635 C   0  0  0  0  0  0  0  0  0  0  0  0
   -1.8329   30.9562    8.4427 N   0  0  0  0  0  0  0  0  0  0  0  0
   -1.4975   32.1496    7.9970 C   0  0  0  0  0  0  0  0  0  0  0  0
   -0.3146   32.0804    7.3014 N   0  0  0  0  0  0  0  0  0  0  0  0
    0.0931   30.8078    7.2600 C   0  0  0  0  0  0  0  0  0  0  0  0
    1.1731   30.3826    6.6506 N   0  0  0  0  0  0  0  0  0  0  0  0
    0.1862   32.8330    6.8526 H   0  0  0  0  0  0  0  0  0  0  0  0
   -2.0634   33.0658    8.1311 H   0  0  0  0  0  0  0  0  0  0  0  0
    2.7905   29.3494    5.4807 H   0  0  0  0  0  0  0  0  0  0  0  0
    4.0163   27.0204    5.3419 C   0  0  0  0  0  0  0  0  0  0  0  0
    3.9885   27.5047    4.3728 H   0  0  0  0  0  0  0  0  0  0  0  0
    2.7687   27.3925    8.4652 H   0  0  0  0  0  0  0  0  0  0  0  0
    4.1199   25.3109    8.8225 H   0  0  0  0  0  0  0  0  0  0  0  0
    5.3845   24.3323    6.9104 H   0  0  0  0  0  0  0  0  0  0  0  0
  1  2  1  0
  2  3  2  0
  3  4  1  0
  4  5  2  0
  5  6  1  0
  6  7  1  0
  7  8  1  0
  8  9  2  0
  9 10  1  0
 10 11  1  0
 11 12  1  0
 12 13  1  0
 13 14  1  0
 14 15  1  0
 15 16  1  0
 16 17  1  0
 17 18  1  0
 18 19  1  0
 18 20  1  0
 17 21  1  0
 17 22  1  0
 16 23  1  0
 16 24  1  0
 15 25  1  0
 15 26  1  0
 14 27  1  0
 14 28  1  0
 13 29  1  0
 12 30  1  0
 12 31  1  0
 10 32  2  0
 32 33  1  0
 33 34  2  0
 34 35  1  0
 35 36  1  0
 36 37  2  0
 35 38  1  0
 34 39  1  0
  7 40  1  0
  6 41  2  0
 41 42  1  0
  5 43  1  0
  4 44  1  0
  3 45  1  0
 41  2  1  0
 37  8  1  0
 18 13  1  0
 36 32  1  0
M  END
>  <cnnaffinities>  (1) 
[7.04505]

>  <score>  (1) 
7.04505

>  <index>  (1) 
0

>  <Smiles>  (1) 
Brc1c(c(c(c(N(c2nc(OC(C3(C(C(C(C(C3([H])[H])([H])[H])([H])[H])([H])[H])([H])[H])[H])([H])[H])c3nc(n(c3n2)[H])[H])[H])c1[H])[H])[H])[H]

>  <h>  (1) 
<NA>

>  <Training>  (1) 
True

>  <Success>  (1) 
True

>  <enamine_searched>  (1) 
False

>  <enamine_id>  (1) 
nan

$$$$
lig_ejm_1
     RDKit          3D

 53 56  0  0  0  0  0  0  0  0999 V2000
    3.5391   22.2087    7.2278 C   0  0  0  0  0  0  0  0  0  0  0  0
    4.7477   22.7621    7.8139 N   0  0  0  0  0  0  0  0  0  0  0  0
    5.7385   23.7574    6.9288 S   0  0  0  0  0  0  0  0  0  0  0  0
    6.8487   24.0843    7.7995 O   0  0  0  0  0  0  0  0  0  0  0  0
    5.9879   23.2028    5.6061 O   0  0  0  0  0  0  0  0  0  0  0  0
    4.7255   25.1791    6.7428 C   0  0  0  0  0  0  0  0  0  0  0  0
    4.0220   25.6966    7.8251 C   0  0  0  0  0  0  0  0  0  0  0  0
    3.2504   26.8377    7.6584 C   0  0  0  0  0  0  0  0  0  0  0  0
    3.2305   27.4781    6.4135 C   0  0  0  0  0  0  0  0  0  0  0  0
    2.5532   28.6850    6.1494 N   0  0  0  0  0  0  0  0  0  0  0  0
    1.4513   29.2126    6.7671 C   0  0  0  0  0  0  0  0  0  0  0  0
    0.7343   28.3620    7.5240 N   0  0  0  0  0  0  0  0  0  0  0  0
   -0.3381   28.8158    8.1495 C   0  0  0  0  0  0  0  0  0  0  0  0
   -0.9992   28.0060    8.9897 O   0  0  0  0  0  0  0  0  0  0  0  0
   -0.5942   26.6203    8.9871 C   0  0  0  0  0  0  0  0  0  0  0  0
   -1.2538   25.7866   10.1036 C   0  0  0  0  0  0  0  0  0  0  0  0
   -1.3324   24.3300    9.6059 C   0  0  0  0  0  0  0  0  0  0  0  0
   -1.7308   23.2868   10.6562 C   0  0  0  0  0  0  0  0  0  0  0  0
   -0.7972   23.3737   11.8651 C   0  0  0  0  0  0  0  0  0  0  0  0
   -0.8010   24.7871   12.4542 C   0  0  0  0  0  0  0  0  0  0  0  0
   -0.4131   25.8302   11.3957 C   0  0  0  0  0  0  0  0  0  0  0  0
   -0.4344   26.8350   11.8289 H   0  0  0  0  0  0  0  0  0  0  0  0
    0.6360   25.6410   11.1193 H   0  0  0  0  0  0  0  0  0  0  0  0
   -1.7979   25.0115   12.8646 H   0  0  0  0  0  0  0  0  0  0  0  0
   -0.0953   24.8417   13.2965 H   0  0  0  0  0  0  0  0  0  0  0  0
    0.2253   23.1105   11.5504 H   0  0  0  0  0  0  0  0  0  0  0  0
   -1.0761   22.6385   12.6279 H   0  0  0  0  0  0  0  0  0  0  0  0
   -2.7742   23.4366   10.9780 H   0  0  0  0  0  0  0  0  0  0  0  0
   -1.6767   22.2805   10.2146 H   0  0  0  0  0  0  0  0  0  0  0  0
   -2.0060   24.2671    8.7439 H   0  0  0  0  0  0  0  0  0  0  0  0
   -0.3288   24.0676    9.2361 H   0  0  0  0  0  0  0  0  0  0  0  0
   -2.2634   26.1707   10.3015 H   0  0  0  0  0  0  0  0  0  0  0  0
   -0.8422   26.2065    8.0038 H   0  0  0  0  0  0  0  0  0  0  0  0
    0.4934   26.5581    9.1084 H   0  0  0  0  0  0  0  0  0  0  0  0
   -0.7478   30.1421    7.9472 C   0  0  0  0  0  0  0  0  0  0  0  0
   -1.8306   30.8746    8.3956 N   0  0  0  0  0  0  0  0  0  0  0  0
   -1.6146   32.0663    7.9226 C   0  0  0  0  0  0  0  0  0  0  0  0
   -0.4595   32.1696    7.1710 N   0  0  0  0  0  0  0  0  0  0  0  0
    0.1134   30.9206    7.1594 C   0  0  0  0  0  0  0  0  0  0  0  0
    1.2150   30.5118    6.5217 N   0  0  0  0  0  0  0  0  0  0  0  0
   -0.0556   33.0205    6.8060 H   0  0  0  0  0  0  0  0  0  0  0  0
   -2.2550   32.9279    8.0745 H   0  0  0  0  0  0  0  0  0  0  0  0
    3.0619   29.3140    5.5454 H   0  0  0  0  0  0  0  0  0  0  0  0
    3.9948   26.9698    5.3537 C   0  0  0  0  0  0  0  0  0  0  0  0
    4.7290   25.8106    5.5068 C   0  0  0  0  0  0  0  0  0  0  0  0
    5.3417   25.3906    4.7132 H   0  0  0  0  0  0  0  0  0  0  0  0
    4.0066   27.4933    4.4023 H   0  0  0  0  0  0  0  0  0  0  0  0
    2.6888   27.2473    8.4914 H   0  0  0  0  0  0  0  0  0  0  0  0
    4.0962   25.2351    8.8089 H   0  0  0  0  0  0  0  0  0  0  0  0
    5.2788   22.2112    8.4765 H   0  0  0  0  0  0  0  0  0  0  0  0
    3.1034   21.4936    7.9274 H   0  0  0  0  0  0  0  0  0  0  0  0
    3.7219   21.7047    6.2732 H   0  0  0  0  0  0  0  0  0  0  0  0
    2.8000   23.0026    7.0808 H   0  0  0  0  0  0  0  0  0  0  0  0
  1  2  1  0
  2  3  1  0
  3  4  2  0
  3  5  2  0
  3  6  1  0
  6  7  2  0
  7  8  1  0
  8  9  2  0
  9 10  1  0
 10 11  1  0
 11 12  2  0
 12 13  1  0
 13 14  1  0
 14 15  1  0
 15 16  1  0
 16 17  1  0
 17 18  1  0
 18 19  1  0
 19 20  1  0
 20 21  1  0
 21 22  1  0
 21 23  1  0
 20 24  1  0
 20 25  1  0
 19 26  1  0
 19 27  1  0
 18 28  1  0
 18 29  1  0
 17 30  1  0
 17 31  1  0
 16 32  1  0
 15 33  1  0
 15 34  1  0
 13 35  2  0
 35 36  1  0
 36 37  2  0
 37 38  1  0
 38 39  1  0
 39 40  2  0
 38 41  1  0
 37 42  1  0
 10 43  1  0
  9 44  1  0
 44 45  2  0
 45 46  1  0
 44 47  1  0
  8 48  1  0
  7 49  1  0
  2 50  1  0
  1 51  1  0
  1 52  1  0
  1 53  1  0
 45  6  1  0
 40 11  1  0
 21 16  1  0
 39 35  1  0
M  END
>  <cnnaffinities>  (2) 
[7.34418]

>  <score>  (2) 
7.34418

>  <index>  (2) 
1

>  <Smiles>  (2) 
C(N(S(=O)(=O)c1c(c(c(N(c2nc(OC(C3(C(C(C(C(C3([H])[H])([H])[H])([H])[H])([H])[H])([H])[H])[H])([H])[H])c3nc(n(c3n2)[H])[H])[H])c(c1[H])[H])[H])[H])[H])([H])([H])[H]

>  <h>  (2) 
<NA>

>  <Training>  (2) 
True

>  <Success>  (2) 
True

>  <enamine_searched>  (2) 
False

>  <enamine_id>  (2) 
nan

$$$$
lig_ejm_2
     RDKit          3D

 49 52  0  0  0  0  0  0  0  0999 V2000
    4.3366   24.0534    3.5001 C   0  0  0  0  0  0  0  0  0  0  0  0
    5.6505   25.1039    4.1780 S   0  0  0  0  0  0  0  0  0  0  0  0
    4.7666   25.8203    5.5526 C   0  0  0  0  0  0  0  0  0  0  0  0
    4.8279   25.2289    6.8187 C   0  0  0  0  0  0  0  0  0  0  0  0
    4.0871   25.7697    7.8622 C   0  0  0  0  0  0  0  0  0  0  0  0
    3.2785   26.8840    7.6753 C   0  0  0  0  0  0  0  0  0  0  0  0
    3.2670   27.5176    6.4312 C   0  0  0  0  0  0  0  0  0  0  0  0
    2.5648   28.7110    6.1541 N   0  0  0  0  0  0  0  0  0  0  0  0
    1.4452   29.2204    6.7691 C   0  0  0  0  0  0  0  0  0  0  0  0
    0.7264   28.3630    7.5185 N   0  0  0  0  0  0  0  0  0  0  0  0
   -0.3478   28.8206    8.1539 C   0  0  0  0  0  0  0  0  0  0  0  0
   -0.9988   28.0107    9.0015 O   0  0  0  0  0  0  0  0  0  0  0  0
   -0.5972   26.6234    8.9847 C   0  0  0  0  0  0  0  0  0  0  0  0
   -1.2554   25.7902   10.1025 C   0  0  0  0  0  0  0  0  0  0  0  0
   -1.3371   24.3330    9.6045 C   0  0  0  0  0  0  0  0  0  0  0  0
   -1.7330   23.2908   10.6569 C   0  0  0  0  0  0  0  0  0  0  0  0
   -0.7975   23.3753   11.8655 C   0  0  0  0  0  0  0  0  0  0  0  0
   -0.8007   24.7893   12.4547 C   0  0  0  0  0  0  0  0  0  0  0  0
   -0.4120   25.8333   11.3966 C   0  0  0  0  0  0  0  0  0  0  0  0
    0.6372   25.6375   11.1244 H   0  0  0  0  0  0  0  0  0  0  0  0
   -0.4289   26.8380   11.8325 H   0  0  0  0  0  0  0  0  0  0  0  0
   -1.7996   25.0136   12.8595 H   0  0  0  0  0  0  0  0  0  0  0  0
   -0.0961   24.8435   13.2987 H   0  0  0  0  0  0  0  0  0  0  0  0
    0.2244   23.1122   11.5477 H   0  0  0  0  0  0  0  0  0  0  0  0
   -1.0751   22.6385   12.6282 H   0  0  0  0  0  0  0  0  0  0  0  0
   -1.6776   22.2851   10.2141 H   0  0  0  0  0  0  0  0  0  0  0  0
   -2.7750   23.4427   10.9815 H   0  0  0  0  0  0  0  0  0  0  0  0
   -2.0097   24.2674    8.7401 H   0  0  0  0  0  0  0  0  0  0  0  0
   -0.3335   24.0647    9.2398 H   0  0  0  0  0  0  0  0  0  0  0  0
   -2.2649   26.1759   10.3018 H   0  0  0  0  0  0  0  0  0  0  0  0
   -0.8496   26.2251    7.9953 H   0  0  0  0  0  0  0  0  0  0  0  0
    0.4917   26.5445    9.0986 H   0  0  0  0  0  0  0  0  0  0  0  0
   -0.7605   30.1502    7.9566 C   0  0  0  0  0  0  0  0  0  0  0  0
   -1.8419   30.8885    8.4011 N   0  0  0  0  0  0  0  0  0  0  0  0
   -1.6291   32.0797    7.9231 C   0  0  0  0  0  0  0  0  0  0  0  0
   -0.4784   32.1805    7.1696 N   0  0  0  0  0  0  0  0  0  0  0  0
    0.0942   30.9285    7.1639 C   0  0  0  0  0  0  0  0  0  0  0  0
    1.1938   30.5135    6.5269 N   0  0  0  0  0  0  0  0  0  0  0  0
   -0.0787   33.0372    6.8103 H   0  0  0  0  0  0  0  0  0  0  0  0
   -2.2763   32.9383    8.0806 H   0  0  0  0  0  0  0  0  0  0  0  0
    3.0488   29.3401    5.5189 H   0  0  0  0  0  0  0  0  0  0  0  0
    4.0344   26.9937    5.3859 C   0  0  0  0  0  0  0  0  0  0  0  0
    4.0447   27.5005    4.4239 H   0  0  0  0  0  0  0  0  0  0  0  0
    2.6724   27.2530    8.4977 H   0  0  0  0  0  0  0  0  0  0  0  0
    4.1363   25.3203    8.8514 H   0  0  0  0  0  0  0  0  0  0  0  0
    5.4670   24.3706    6.9941 H   0  0  0  0  0  0  0  0  0  0  0  0
    4.7780   23.5010    2.6656 H   0  0  0  0  0  0  0  0  0  0  0  0
    3.9778   23.3430    4.2511 H   0  0  0  0  0  0  0  0  0  0  0  0
    3.5000   24.6495    3.1230 H   0  0  0  0  0  0  0  0  0  0  0  0
  1  2  1  0
  2  3  1  0
  3  4  2  0
  4  5  1  0
  5  6  2  0
  6  7  1  0
  7  8  1  0
  8  9  1  0
  9 10  2  0
 10 11  1  0
 11 12  1  0
 12 13  1  0
 13 14  1  0
 14 15  1  0
 15 16  1  0
 16 17  1  0
 17 18  1  0
 18 19  1  0
 19 20  1  0
 19 21  1  0
 18 22  1  0
 18 23  1  0
 17 24  1  0
 17 25  1  0
 16 26  1  0
 16 27  1  0
 15 28  1  0
 15 29  1  0
 14 30  1  0
 13 31  1  0
 13 32  1  0
 11 33  2  0
 33 34  1  0
 34 35  2  0
 35 36  1  0
 36 37  1  0
 37 38  2  0
 36 39  1  0
 35 40  1  0
  8 41  1  0
  7 42  2  0
 42 43  1  0
  6 44  1  0
  5 45  1  0
  4 46  1  0
  1 47  1  0
  1 48  1  0
  1 49  1  0
 42  3  1  0
 38  9  1  0
 19 14  1  0
 37 33  1  0
M  END
>  <cnnaffinities>  (3) 
[7.24216]

>  <score>  (3) 
7.24216

>  <index>  (3) 
2

>  <Smiles>  (3) 
C(Sc1c(c(c(c(N(c2nc(OC(C3(C(C(C(C(C3([H])[H])([H])[H])([H])[H])([H])[H])([H])[H])[H])([H])[H])c3nc(n(c3n2)[H])[H])[H])c1[H])[H])[H])[H])([H])([H])[H]

>  <h>  (3) 
<NA>

>  <Training>  (3) 
True

>  <Success>  (3) 
True

>  <enamine_searched>  (3) 
False

>  <enamine_id>  (3) 
nan

$$$$
lig_ejm_3
     RDKit          3D

 51 54  0  0  0  0  0  0  0  0999 V2000
    6.8553   24.1013    7.1626 C   0  0  0  0  0  0  0  0  0  0  0  0
    5.2505   23.4960    6.7385 S   0  0  0  0  0  0  0  0  0  0  0  0
    5.3433   22.8759    5.4173 O   0  0  0  0  0  0  0  0  0  0  0  0
    4.7156   22.7578    7.8716 O   0  0  0  0  0  0  0  0  0  0  0  0
    4.4038   25.0431    6.6096 C   0  0  0  0  0  0  0  0  0  0  0  0
    3.7844   25.6041    7.7202 C   0  0  0  0  0  0  0  0  0  0  0  0
    3.1792   26.8485    7.6144 C   0  0  0  0  0  0  0  0  0  0  0  0
    3.2404   27.5520    6.4037 C   0  0  0  0  0  0  0  0  0  0  0  0
    2.6575   28.8256    6.2257 N   0  0  0  0  0  0  0  0  0  0  0  0
    1.5083   29.2936    6.8112 C   0  0  0  0  0  0  0  0  0  0  0  0
    0.8143   28.4260    7.5722 N   0  0  0  0  0  0  0  0  0  0  0  0
   -0.2735   28.8415    8.2021 C   0  0  0  0  0  0  0  0  0  0  0  0
   -0.8681   28.0127    9.0737 O   0  0  0  0  0  0  0  0  0  0  0  0
   -0.5690   26.6042    8.9568 C   0  0  0  0  0  0  0  0  0  0  0  0
   -1.2209   25.7903   10.0870 C   0  0  0  0  0  0  0  0  0  0  0  0
   -1.3176   24.3339    9.5972 C   0  0  0  0  0  0  0  0  0  0  0  0
   -1.7385   23.3190   10.6608 C   0  0  0  0  0  0  0  0  0  0  0  0
   -0.8080   23.3995   11.8684 C   0  0  0  0  0  0  0  0  0  0  0  0
   -0.8237   24.8155   12.4452 C   0  0  0  0  0  0  0  0  0  0  0  0
   -0.4006   25.8501   11.3908 C   0  0  0  0  0  0  0  0  0  0  0  0
   -0.4207   26.8608   11.8177 H   0  0  0  0  0  0  0  0  0  0  0  0
    0.6484   25.6363   11.1316 H   0  0  0  0  0  0  0  0  0  0  0  0
   -0.1554   24.8802   13.3117 H   0  0  0  0  0  0  0  0  0  0  0  0
   -1.8314   25.0351   12.8230 H   0  0  0  0  0  0  0  0  0  0  0  0
    0.2135   23.1601   11.5419 H   0  0  0  0  0  0  0  0  0  0  0  0
   -1.0786   22.6541   12.6272 H   0  0  0  0  0  0  0  0  0  0  0  0
   -2.7700   23.5059   10.9878 H   0  0  0  0  0  0  0  0  0  0  0  0
   -1.7313   22.3119   10.2292 H   0  0  0  0  0  0  0  0  0  0  0  0
   -0.3110   24.0560    9.2470 H   0  0  0  0  0  0  0  0  0  0  0  0
   -1.9840   24.2724    8.7253 H   0  0  0  0  0  0  0  0  0  0  0  0
   -2.2231   26.2002   10.2634 H   0  0  0  0  0  0  0  0  0  0  0  0
   -0.9413   26.2586    7.9836 H   0  0  0  0  0  0  0  0  0  0  0  0
    0.5188   26.4517    8.9697 H   0  0  0  0  0  0  0  0  0  0  0  0
   -0.7602   30.1471    7.9872 C   0  0  0  0  0  0  0  0  0  0  0  0
   -1.8407   30.8925    8.4439 N   0  0  0  0  0  0  0  0  0  0  0  0
   -1.6604   32.0656    7.9106 C   0  0  0  0  0  0  0  0  0  0  0  0
   -0.5421   32.1587    7.1123 N   0  0  0  0  0  0  0  0  0  0  0  0
    0.0579   30.9264    7.1575 C   0  0  0  0  0  0  0  0  0  0  0  0
    1.1859   30.5647    6.5439 N   0  0  0  0  0  0  0  0  0  0  0  0
   -0.1561   33.0016    6.7080 H   0  0  0  0  0  0  0  0  0  0  0  0
   -2.3010   32.9240    8.0699 H   0  0  0  0  0  0  0  0  0  0  0  0
    3.0925   29.4425    5.5469 H   0  0  0  0  0  0  0  0  0  0  0  0
    3.9463   27.0108    5.3234 C   0  0  0  0  0  0  0  0  0  0  0  0
    4.5157   25.7545    5.4211 C   0  0  0  0  0  0  0  0  0  0  0  0
    5.0744   25.3398    4.5892 H   0  0  0  0  0  0  0  0  0  0  0  0
    4.0687   27.5982    4.4178 H   0  0  0  0  0  0  0  0  0  0  0  0
    2.6960   27.2999    8.4758 H   0  0  0  0  0  0  0  0  0  0  0  0
    3.7856   25.0814    8.6736 H   0  0  0  0  0  0  0  0  0  0  0  0
    7.5903   23.3034    7.0462 H   0  0  0  0  0  0  0  0  0  0  0  0
    6.8167   24.4587    8.1951 H   0  0  0  0  0  0  0  0  0  0  0  0
    7.0774   24.9229    6.4710 H   0  0  0  0  0  0  0  0  0  0  0  0
  1  2  1  0
  2  3  2  0
  2  4  2  0
  2  5  1  0
  5  6  2  0
  6  7  1  0
  7  8  2  0
  8  9  1  0
  9 10  1  0
 10 11  2  0
 11 12  1  0
 12 13  1  0
 13 14  1  0
 14 15  1  0
 15 16  1  0
 16 17  1  0
 17 18  1  0
 18 19  1  0
 19 20  1  0
 20 21  1  0
 20 22  1  0
 19 23  1  0
 19 24  1  0
 18 25  1  0
 18 26  1  0
 17 27  1  0
 17 28  1  0
 16 29  1  0
 16 30  1  0
 15 31  1  0
 14 32  1  0
 14 33  1  0
 12 34  2  0
 34 35  1  0
 35 36  2  0
 36 37  1  0
 37 38  1  0
 38 39  2  0
 37 40  1  0
 36 41  1  0
  9 42  1  0
  8 43  1  0
 43 44  2  0
 44 45  1  0
 43 46  1  0
  7 47  1  0
  6 48  1  0
  1 49  1  0
  1 50  1  0
  1 51  1  0
 44  5  1  0
 39 10  1  0
 20 15  1  0
 38 34  1  0
M  END
>  <cnnaffinities>  (4) 
[7.23128, 7.23305]

>  <score>  (4) 
7.23128

>  <index>  (4) 
3

>  <Smiles>  (4) 
C(S(=O)(=O)c1c(c(c(N(c2nc(OC(C3(C(C(C(C(C3([H])[H])([H])[H])([H])[H])([H])[H])([H])[H])[H])([H])[H])c3nc(n(c3n2)[H])[H])[H])c(c1[H])[H])[H])[H])([H])([H])[H]

>  <h>  (4) 
<NA>

>  <Training>  (4) 
True

>  <Success>  (4) 
True

>  <enamine_searched>  (4) 
False

>  <enamine_id>  (4) 
nan

$$$$
lig_ejm_4
     RDKit          3D

 45 48  0  0  0  0  0  0  0  0999 V2000
    5.6883   25.2156    4.2423 Cl  0  0  0  0  0  0  0  0  0  0  0  0
    4.7607   25.8575    5.5649 C   0  0  0  0  0  0  0  0  0  0  0  0
    4.8130   25.2311    6.8024 C   0  0  0  0  0  0  0  0  0  0  0  0
    4.0564   25.7690    7.8364 C   0  0  0  0  0  0  0  0  0  0  0  0
    3.2746   26.9068    7.6528 C   0  0  0  0  0  0  0  0  0  0  0  0
    3.2621   27.5464    6.4107 C   0  0  0  0  0  0  0  0  0  0  0  0
    2.5831   28.7547    6.1524 N   0  0  0  0  0  0  0  0  0  0  0  0
    1.4541   29.2281    6.7772 C   0  0  0  0  0  0  0  0  0  0  0  0
    0.7682   28.3633    7.5331 N   0  0  0  0  0  0  0  0  0  0  0  0
   -0.2728   28.7625    8.2556 C   0  0  0  0  0  0  0  0  0  0  0  0
   -0.7485   27.8695    9.1603 O   0  0  0  0  0  0  0  0  0  0  0  0
   -0.2236   26.5121    8.9461 C   0  0  0  0  0  0  0  0  0  0  0  0
   -0.4236   25.4134   10.0043 C   0  0  0  0  0  0  0  0  0  0  0  0
   -1.5635   24.4503    9.6217 C   0  0  0  0  0  0  0  0  0  0  0  0
   -1.8086   23.3534   10.6906 C   0  0  0  0  0  0  0  0  0  0  0  0
   -0.7991   23.4190   11.8428 C   0  0  0  0  0  0  0  0  0  0  0  0
   -0.8524   24.8233   12.4552 C   0  0  0  0  0  0  0  0  0  0  0  0
   -0.5561   25.9481   11.4258 C   0  0  0  0  0  0  0  0  0  0  0  0
    0.3784   26.4615   11.6864 H   0  0  0  0  0  0  0  0  0  0  0  0
   -1.3606   26.6933   11.4413 H   0  0  0  0  0  0  0  0  0  0  0  0
   -1.8610   24.9654   12.8656 H   0  0  0  0  0  0  0  0  0  0  0  0
   -0.1706   24.8885   13.3096 H   0  0  0  0  0  0  0  0  0  0  0  0
    0.2156   23.1836   11.4913 H   0  0  0  0  0  0  0  0  0  0  0  0
   -1.0144   22.6495   12.5999 H   0  0  0  0  0  0  0  0  0  0  0  0
   -1.7949   22.3565   10.2388 H   0  0  0  0  0  0  0  0  0  0  0  0
   -2.8137   23.4833   11.1137 H   0  0  0  0  0  0  0  0  0  0  0  0
   -1.2886   23.9870    8.6638 H   0  0  0  0  0  0  0  0  0  0  0  0
   -2.4914   25.0177    9.4594 H   0  0  0  0  0  0  0  0  0  0  0  0
    0.4991   24.7981    9.9529 H   0  0  0  0  0  0  0  0  0  0  0  0
    0.8487   26.6266    8.8411 H   0  0  0  0  0  0  0  0  0  0  0  0
   -0.6812   26.1777    8.0103 H   0  0  0  0  0  0  0  0  0  0  0  0
   -0.7704   30.0798    8.0461 C   0  0  0  0  0  0  0  0  0  0  0  0
   -1.8470   30.8408    8.4923 N   0  0  0  0  0  0  0  0  0  0  0  0
   -1.6607   32.0157    7.9610 C   0  0  0  0  0  0  0  0  0  0  0  0
   -0.5420   32.0993    7.1671 N   0  0  0  0  0  0  0  0  0  0  0  0
    0.0403   30.8611    7.1975 C   0  0  0  0  0  0  0  0  0  0  0  0
    1.1430   30.5046    6.5448 N   0  0  0  0  0  0  0  0  0  0  0  0
   -0.1397   32.9358    6.7611 H   0  0  0  0  0  0  0  0  0  0  0  0
   -2.2955   32.8820    8.1036 H   0  0  0  0  0  0  0  0  0  0  0  0
    3.0384   29.3975    5.5114 H   0  0  0  0  0  0  0  0  0  0  0  0
    4.0095   27.0043    5.3597 C   0  0  0  0  0  0  0  0  0  0  0  0
    3.9936   27.4900    4.3902 H   0  0  0  0  0  0  0  0  0  0  0  0
    2.7020   27.2958    8.4855 H   0  0  0  0  0  0  0  0  0  0  0  0
    4.0829   25.3019    8.8159 H   0  0  0  0  0  0  0  0  0  0  0  0
    5.4334   24.3539    6.9530 H   0  0  0  0  0  0  0  0  0  0  0  0
  1  2  1  0
  2  3  2  0
  3  4  1  0
  4  5  2  0
  5  6  1  0
  6  7  1  0
  7  8  1  0
  8  9  2  0
  9 10  1  0
 10 11  1  0
 11 12  1  0
 12 13  1  0
 13 14  1  0
 14 15  1  0
 15 16  1  0
 16 17  1  0
 17 18  1  0
 18 19  1  0
 18 20  1  0
 17 21  1  0
 17 22  1  0
 16 23  1  0
 16 24  1  0
 15 25  1  0
 15 26  1  0
 14 27  1  0
 14 28  1  0
 13 29  1  0
 12 30  1  0
 12 31  1  0
 10 32  2  0
 32 33  1  0
 33 34  2  0
 34 35  1  0
 35 36  1  0
 36 37  2  0
 35 38  1  0
 34 39  1  0
  7 40  1  0
  6 41  2  0
 41 42  1  0
  5 43  1  0
  4 44  1  0
  3 45  1  0
 41  2  1  0
 37  8  1  0
 18 13  1  0
 36 32  1  0
M  END
>  <cnnaffinities>  (5) 
[7.0259]

>  <score>  (5) 
7.0259

>  <index>  (5) 
4

>  <Smiles>  (5) 
Clc1c(c(c(c(N(c2nc(OC(C3(C(C(C(C(C3([H])[H])([H])[H])([H])[H])([H])[H])([H])[H])[H])([H])[H])c3nc(n(c3n2)[H])[H])[H])c1[H])[H])[H])[H]

>  <h>  (5) 
<NA>

>  <Training>  (5) 
True

>  <Success>  (5) 
True

>  <enamine_searched>  (5) 
False

>  <enamine_id>  (5) 
nan

$$$$
lig_ejm_5
     RDKit          3D

 50 53  0  0  0  0  0  0  0  0999 V2000
    6.9452   23.9368    7.2167 N   0  0  0  0  0  0  0  0  0  0  0  0
    5.3837   23.5515    6.8297 S   0  0  0  0  0  0  0  0  0  0  0  0
    5.4279   22.9277    5.5219 O   0  0  0  0  0  0  0  0  0  0  0  0
    4.8477   22.8581    7.9844 O   0  0  0  0  0  0  0  0  0  0  0  0
    4.5768   25.1270    6.6846 C   0  0  0  0  0  0  0  0  0  0  0  0
    3.9022   25.6779    7.7712 C   0  0  0  0  0  0  0  0  0  0  0  0
    3.2273   26.8815    7.6268 C   0  0  0  0  0  0  0  0  0  0  0  0
    3.2722   27.5665    6.4062 C   0  0  0  0  0  0  0  0  0  0  0  0
    2.6187   28.7998    6.1941 N   0  0  0  0  0  0  0  0  0  0  0  0
    1.4785   29.2712    6.7972 C   0  0  0  0  0  0  0  0  0  0  0  0
    0.7695   28.4095    7.5484 N   0  0  0  0  0  0  0  0  0  0  0  0
   -0.3087   28.8384    8.1916 C   0  0  0  0  0  0  0  0  0  0  0  0
   -0.9117   28.0097    9.0551 O   0  0  0  0  0  0  0  0  0  0  0  0
   -0.5765   26.6095    8.9617 C   0  0  0  0  0  0  0  0  0  0  0  0
   -1.2284   25.7921   10.0879 C   0  0  0  0  0  0  0  0  0  0  0  0
   -1.3207   24.3358    9.5933 C   0  0  0  0  0  0  0  0  0  0  0  0
   -1.7324   23.3164   10.6570 C   0  0  0  0  0  0  0  0  0  0  0  0
   -0.8044   23.3938   11.8675 C   0  0  0  0  0  0  0  0  0  0  0  0
   -0.8155   24.8102   12.4443 C   0  0  0  0  0  0  0  0  0  0  0  0
   -0.3998   25.8497   11.3907 C   0  0  0  0  0  0  0  0  0  0  0  0
    0.6518   25.6403   11.1318 H   0  0  0  0  0  0  0  0  0  0  0  0
   -0.4251   26.8586   11.8252 H   0  0  0  0  0  0  0  0  0  0  0  0
   -1.8189   25.0300   12.8333 H   0  0  0  0  0  0  0  0  0  0  0  0
   -0.1404   24.8712   13.3056 H   0  0  0  0  0  0  0  0  0  0  0  0
   -1.0857   22.6508   12.6273 H   0  0  0  0  0  0  0  0  0  0  0  0
    0.2171   23.1466   11.5446 H   0  0  0  0  0  0  0  0  0  0  0  0
   -1.7145   22.3117   10.2218 H   0  0  0  0  0  0  0  0  0  0  0  0
   -2.7663   23.4910   10.9828 H   0  0  0  0  0  0  0  0  0  0  0  0
   -0.3155   24.0587    9.2355 H   0  0  0  0  0  0  0  0  0  0  0  0
   -1.9958   24.2743    8.7265 H   0  0  0  0  0  0  0  0  0  0  0  0
   -2.2344   26.1960   10.2735 H   0  0  0  0  0  0  0  0  0  0  0  0
    0.5155   26.4880    9.0126 H   0  0  0  0  0  0  0  0  0  0  0  0
   -0.9110   26.2469    7.9817 H   0  0  0  0  0  0  0  0  0  0  0  0
   -0.7762   30.1507    7.9869 C   0  0  0  0  0  0  0  0  0  0  0  0
   -1.8532   30.9002    8.4454 N   0  0  0  0  0  0  0  0  0  0  0  0
   -1.6578   32.0754    7.9237 C   0  0  0  0  0  0  0  0  0  0  0  0
   -0.5337   32.1631    7.1350 N   0  0  0  0  0  0  0  0  0  0  0  0
    0.0556   30.9261    7.1669 C   0  0  0  0  0  0  0  0  0  0  0  0
    1.1790   30.5539    6.5517 N   0  0  0  0  0  0  0  0  0  0  0  0
   -0.1336   33.0018    6.7343 H   0  0  0  0  0  0  0  0  0  0  0  0
   -2.2874   32.9443    8.0743 H   0  0  0  0  0  0  0  0  0  0  0  0
    3.0516   29.4339    5.5313 H   0  0  0  0  0  0  0  0  0  0  0  0
    3.9968   27.0243    5.3391 C   0  0  0  0  0  0  0  0  0  0  0  0
    4.6404   25.8067    5.4694 C   0  0  0  0  0  0  0  0  0  0  0  0
    5.1842   25.3923    4.6241 H   0  0  0  0  0  0  0  0  0  0  0  0
    4.0206   27.5579    4.3925 H   0  0  0  0  0  0  0  0  0  0  0  0
    2.6639   27.2920    8.4571 H   0  0  0  0  0  0  0  0  0  0  0  0
    3.8851   25.1717    8.7349 H   0  0  0  0  0  0  0  0  0  0  0  0
    7.3817   24.5382    6.5257 H   0  0  0  0  0  0  0  0  0  0  0  0
    7.0234   24.2909    8.1672 H   0  0  0  0  0  0  0  0  0  0  0  0
  1  2  1  0
  2  3  2  0
  2  4  2  0
  2  5  1  0
  5  6  2  0
  6  7  1  0
  7  8  2  0
  8  9  1  0
  9 10  1  0
 10 11  2  0
 11 12  1  0
 12 13  1  0
 13 14  1  0
 14 15  1  0
 15 16  1  0
 16 17  1  0
 17 18  1  0
 18 19  1  0
 19 20  1  0
 20 21  1  0
 20 22  1  0
 19 23  1  0
 19 24  1  0
 18 25  1  0
 18 26  1  0
 17 27  1  0
 17 28  1  0
 16 29  1  0
 16 30  1  0
 15 31  1  0
 14 32  1  0
 14 33  1  0
 12 34  2  0
 34 35  1  0
 35 36  2  0
 36 37  1  0
 37 38  1  0
 38 39  2  0
 37 40  1  0
 36 41  1  0
  9 42  1  0
  8 43  1  0
 43 44  2  0
 44 45  1  0
 43 46  1  0
  7 47  1  0
  6 48  1  0
  1 49  1  0
  1 50  1  0
 44  5  1  0
 39 10  1  0
 20 15  1  0
 38 34  1  0
M  END
>  <cnnaffinities>  (6) 
[7.08582, 7.17461]

>  <score>  (6) 
7.08582

>  <index>  (6) 
5

>  <Smiles>  (6) 
N(S(=O)(=O)c1c(c(c(N(c2nc(OC(C3(C(C(C(C(C3([H])[H])([H])[H])([H])[H])([H])[H])([H])[H])[H])([H])[H])c3nc(n(c3n2)[H])[H])[H])c(c1[H])[H])[H])[H])([H])[H]

>  <h>  (6) 
<NA>

>  <Training>  (6) 
True

>  <Success>  (6) 
True

>  <enamine_searched>  (6) 
False

>  <enamine_id>  (6) 
nan

$$$$
lig_ejm_6
     RDKit          3D

 49 52  0  0  0  0  0  0  0  0999 V2000
    5.5400   25.7758    3.2771 C   0  0  0  0  0  0  0  0  0  0  0  0
    5.5205   25.1731    4.5503 O   0  0  0  0  0  0  0  0  0  0  0  0
    4.7767   25.7968    5.5064 C   0  0  0  0  0  0  0  0  0  0  0  0
    4.8180   25.1989    6.7714 C   0  0  0  0  0  0  0  0  0  0  0  0
    4.0853   25.7467    7.8089 C   0  0  0  0  0  0  0  0  0  0  0  0
    3.2853   26.8696    7.6219 C   0  0  0  0  0  0  0  0  0  0  0  0
    3.2740   27.4924    6.3727 C   0  0  0  0  0  0  0  0  0  0  0  0
    2.5773   28.6992    6.1261 N   0  0  0  0  0  0  0  0  0  0  0  0
    1.4629   29.2045    6.7555 C   0  0  0  0  0  0  0  0  0  0  0  0
    0.7370   28.3516    7.5078 N   0  0  0  0  0  0  0  0  0  0  0  0
   -0.3335   28.8133    8.1479 C   0  0  0  0  0  0  0  0  0  0  0  0
   -0.9824   28.0032    8.9962 O   0  0  0  0  0  0  0  0  0  0  0  0
   -0.5890   26.6131    8.9761 C   0  0  0  0  0  0  0  0  0  0  0  0
   -1.2532   25.7903   10.0991 C   0  0  0  0  0  0  0  0  0  0  0  0
   -1.3368   24.3331    9.6019 C   0  0  0  0  0  0  0  0  0  0  0  0
   -1.7322   23.2938   10.6567 C   0  0  0  0  0  0  0  0  0  0  0  0
   -0.7974   23.3765   11.8658 C   0  0  0  0  0  0  0  0  0  0  0  0
   -0.8013   24.7913   12.4539 C   0  0  0  0  0  0  0  0  0  0  0  0
   -0.4107   25.8362   11.3958 C   0  0  0  0  0  0  0  0  0  0  0  0
    0.6402   25.6378   11.1292 H   0  0  0  0  0  0  0  0  0  0  0  0
   -0.4292   26.8406   11.8345 H   0  0  0  0  0  0  0  0  0  0  0  0
   -1.8006   25.0147   12.8584 H   0  0  0  0  0  0  0  0  0  0  0  0
   -0.0986   24.8455   13.2991 H   0  0  0  0  0  0  0  0  0  0  0  0
    0.2247   23.1138   11.5472 H   0  0  0  0  0  0  0  0  0  0  0  0
   -1.0773   22.6392   12.6284 H   0  0  0  0  0  0  0  0  0  0  0  0
   -1.6782   22.2890   10.2132 H   0  0  0  0  0  0  0  0  0  0  0  0
   -2.7736   23.4472   10.9814 H   0  0  0  0  0  0  0  0  0  0  0  0
   -2.0111   24.2675    8.7382 H   0  0  0  0  0  0  0  0  0  0  0  0
   -0.3325   24.0633    9.2379 H   0  0  0  0  0  0  0  0  0  0  0  0
   -2.2626   26.1793   10.2970 H   0  0  0  0  0  0  0  0  0  0  0  0
   -0.8479   26.2161    7.9880 H   0  0  0  0  0  0  0  0  0  0  0  0
    0.5008   26.5261    9.0926 H   0  0  0  0  0  0  0  0  0  0  0  0
   -0.7457   30.1423    7.9525 C   0  0  0  0  0  0  0  0  0  0  0  0
   -1.8285   30.8796    8.4009 N   0  0  0  0  0  0  0  0  0  0  0  0
   -1.6155   32.0710    7.9199 C   0  0  0  0  0  0  0  0  0  0  0  0
   -0.4654   32.1678    7.1621 N   0  0  0  0  0  0  0  0  0  0  0  0
    0.1094   30.9162    7.1578 C   0  0  0  0  0  0  0  0  0  0  0  0
    1.2104   30.5014    6.5221 N   0  0  0  0  0  0  0  0  0  0  0  0
   -0.0657   33.0238    6.7976 H   0  0  0  0  0  0  0  0  0  0  0  0
   -2.2565   32.9335    8.0789 H   0  0  0  0  0  0  0  0  0  0  0  0
    3.0438   29.3437    5.4935 H   0  0  0  0  0  0  0  0  0  0  0  0
    4.0282   26.9561    5.3146 C   0  0  0  0  0  0  0  0  0  0  0  0
    4.0149   27.4650    4.3543 H   0  0  0  0  0  0  0  0  0  0  0  0
    2.6904   27.2537    8.4438 H   0  0  0  0  0  0  0  0  0  0  0  0
    4.1435   25.3036    8.8001 H   0  0  0  0  0  0  0  0  0  0  0  0
    5.4602   24.3364    6.9046 H   0  0  0  0  0  0  0  0  0  0  0  0
    5.9866   26.7775    3.3295 H   0  0  0  0  0  0  0  0  0  0  0  0
    4.5250   25.8365    2.8639 H   0  0  0  0  0  0  0  0  0  0  0  0
    6.1516   25.1428    2.6311 H   0  0  0  0  0  0  0  0  0  0  0  0
  1  2  1  0
  2  3  1  0
  3  4  2  0
  4  5  1  0
  5  6  2  0
  6  7  1  0
  7  8  1  0
  8  9  1  0
  9 10  2  0
 10 11  1  0
 11 12  1  0
 12 13  1  0
 13 14  1  0
 14 15  1  0
 15 16  1  0
 16 17  1  0
 17 18  1  0
 18 19  1  0
 19 20  1  0
 19 21  1  0
 18 22  1  0
 18 23  1  0
 17 24  1  0
 17 25  1  0
 16 26  1  0
 16 27  1  0
 15 28  1  0
 15 29  1  0
 14 30  1  0
 13 31  1  0
 13 32  1  0
 11 33  2  0
 33 34  1  0
 34 35  2  0
 35 36  1  0
 36 37  1  0
 37 38  2  0
 36 39  1  0
 35 40  1  0
  8 41  1  0
  7 42  2  0
 42 43  1  0
  6 44  1  0
  5 45  1  0
  4 46  1  0
  1 47  1  0
  1 48  1  0
  1 49  1  0
 42  3  1  0
 38  9  1  0
 19 14  1  0
 37 33  1  0
M  END
>  <cnnaffinities>  (7) 
[7.029]

>  <score>  (7) 
7.029

>  <index>  (7) 
6

>  <Smiles>  (7) 
C(Oc1c(c(c(c(N(c2nc(OC(C3(C(C(C(C(C3([H])[H])([H])[H])([H])[H])([H])[H])([H])[H])[H])([H])[H])c3nc(n(c3n2)[H])[H])[H])c1[H])[H])[H])[H])([H])([H])[H]

>  <h>  (7) 
<NA>

>  <Training>  (7) 
True

>  <Success>  (7) 
True

>  <enamine_searched>  (7) 
False

>  <enamine_id>  (7) 
nan

$$$$
lig_ejm_7
     RDKit          3D

 49 52  0  0  0  0  0  0  0  0999 V2000
    5.1579   23.1284    7.9576 N   0  0  0  0  0  0  0  0  0  0  0  0
    5.5881   23.9461    6.9531 C   0  0  0  0  0  0  0  0  0  0  0  0
    6.5148   23.6602    6.2102 O   0  0  0  0  0  0  0  0  0  0  0  0
    4.8042   25.2086    6.8081 C   0  0  0  0  0  0  0  0  0  0  0  0
    4.0723   25.7674    7.8575 C   0  0  0  0  0  0  0  0  0  0  0  0
    3.2715   26.8836    7.6664 C   0  0  0  0  0  0  0  0  0  0  0  0
    3.2381   27.4968    6.4090 C   0  0  0  0  0  0  0  0  0  0  0  0
    2.5290   28.6802    6.1150 N   0  0  0  0  0  0  0  0  0  0  0  0
    1.4370   29.2109    6.7520 C   0  0  0  0  0  0  0  0  0  0  0  0
    0.7210   28.3620    7.5123 N   0  0  0  0  0  0  0  0  0  0  0  0
   -0.3490   28.8198    8.1441 C   0  0  0  0  0  0  0  0  0  0  0  0
   -1.0090   28.0089    8.9844 O   0  0  0  0  0  0  0  0  0  0  0  0
   -0.5962   26.6244    8.9896 C   0  0  0  0  0  0  0  0  0  0  0  0
   -1.2549   25.7865   10.1053 C   0  0  0  0  0  0  0  0  0  0  0  0
   -1.3352   24.3299    9.6064 C   0  0  0  0  0  0  0  0  0  0  0  0
   -1.7304   23.2848   10.6561 C   0  0  0  0  0  0  0  0  0  0  0  0
   -0.7970   23.3722   11.8650 C   0  0  0  0  0  0  0  0  0  0  0  0
   -0.7982   24.7857   12.4537 C   0  0  0  0  0  0  0  0  0  0  0  0
   -0.4131   25.8298   11.3959 C   0  0  0  0  0  0  0  0  0  0  0  0
    0.6352   25.6424   11.1166 H   0  0  0  0  0  0  0  0  0  0  0  0
   -0.4353   26.8350   11.8284 H   0  0  0  0  0  0  0  0  0  0  0  0
   -1.7940   25.0107   12.8655 H   0  0  0  0  0  0  0  0  0  0  0  0
   -0.0905   24.8393   13.2943 H   0  0  0  0  0  0  0  0  0  0  0  0
    0.2249   23.1074   11.5507 H   0  0  0  0  0  0  0  0  0  0  0  0
   -1.0765   22.6378   12.6281 H   0  0  0  0  0  0  0  0  0  0  0  0
   -1.6745   22.2790   10.2139 H   0  0  0  0  0  0  0  0  0  0  0  0
   -2.7741   23.4316   10.9772 H   0  0  0  0  0  0  0  0  0  0  0  0
   -2.0110   24.2689    8.7459 H   0  0  0  0  0  0  0  0  0  0  0  0
   -0.3331   24.0682    9.2333 H   0  0  0  0  0  0  0  0  0  0  0  0
   -2.2636   26.1700   10.3049 H   0  0  0  0  0  0  0  0  0  0  0  0
    0.4920   26.5727    9.1128 H   0  0  0  0  0  0  0  0  0  0  0  0
   -0.8358   26.2070    8.0059 H   0  0  0  0  0  0  0  0  0  0  0  0
   -0.7551   30.1482    7.9493 C   0  0  0  0  0  0  0  0  0  0  0  0
   -1.8391   30.8839    8.3961 N   0  0  0  0  0  0  0  0  0  0  0  0
   -1.6183   32.0764    7.9271 C   0  0  0  0  0  0  0  0  0  0  0  0
   -0.4594   32.1794    7.1818 N   0  0  0  0  0  0  0  0  0  0  0  0
    0.1077   30.9269    7.1645 C   0  0  0  0  0  0  0  0  0  0  0  0
    1.2036   30.5116    6.5178 N   0  0  0  0  0  0  0  0  0  0  0  0
   -0.0574   33.0332    6.8155 H   0  0  0  0  0  0  0  0  0  0  0  0
   -2.2665   32.9341    8.0800 H   0  0  0  0  0  0  0  0  0  0  0  0
    3.0397   29.3235    5.5238 H   0  0  0  0  0  0  0  0  0  0  0  0
    4.0223   26.9740    5.3698 C   0  0  0  0  0  0  0  0  0  0  0  0
    4.7926   25.8401    5.5654 C   0  0  0  0  0  0  0  0  0  0  0  0
    5.4148   25.4230    4.7769 H   0  0  0  0  0  0  0  0  0  0  0  0
    4.0046   27.4628    4.3984 H   0  0  0  0  0  0  0  0  0  0  0  0
    2.6823   27.2744    8.4914 H   0  0  0  0  0  0  0  0  0  0  0  0
    4.1453   25.3663    8.8674 H   0  0  0  0  0  0  0  0  0  0  0  0
    5.5832   22.2276    8.0908 H   0  0  0  0  0  0  0  0  0  0  0  0
    4.3149   23.3199    8.4724 H   0  0  0  0  0  0  0  0  0  0  0  0
  1  2  1  0
  2  3  2  0
  2  4  1  0
  4  5  2  0
  5  6  1  0
  6  7  2  0
  7  8  1  0
  8  9  1  0
  9 10  2  0
 10 11  1  0
 11 12  1  0
 12 13  1  0
 13 14  1  0
 14 15  1  0
 15 16  1  0
 16 17  1  0
 17 18  1  0
 18 19  1  0
 19 20  1  0
 19 21  1  0
 18 22  1  0
 18 23  1  0
 17 24  1  0
 17 25  1  0
 16 26  1  0
 16 27  1  0
 15 28  1  0
 15 29  1  0
 14 30  1  0
 13 31  1  0
 13 32  1  0
 11 33  2  0
 33 34  1  0
 34 35  2  0
 35 36  1  0
 36 37  1  0
 37 38  2  0
 36 39  1  0
 35 40  1  0
  8 41  1  0
  7 42  1  0
 42 43  2  0
 43 44  1  0
 42 45  1  0
  6 46  1  0
  5 47  1  0
  1 48  1  0
  1 49  1  0
 43  4  1  0
 38  9  1  0
 19 14  1  0
 37 33  1  0
M  END
>  <cnnaffinities>  (8) 
[7.22378]

>  <score>  (8) 
7.22378

>  <index>  (8) 
7

>  <Smiles>  (8) 
N(C(=O)c1c(c(c(N(c2nc(OC(C3(C(C(C(C(C3([H])[H])([H])[H])([H])[H])([H])[H])([H])[H])[H])([H])[H])c3nc(n(c3n2)[H])[H])[H])c(c1[H])[H])[H])[H])([H])[H]

>  <h>  (8) 
<NA>

>  <Training>  (8) 
True

>  <Success>  (8) 
True

>  <enamine_searched>  (8) 
False

>  <enamine_id>  (8) 
nan

$$$$
lig_ejm_8
     RDKit          3D

 50 53  0  0  0  0  0  0  0  0999 V2000
    7.1282   25.6399    3.9679 N   0  0  0  0  0  0  0  0  0  0  0  0
    5.5653   25.0534    4.1254 S   0  0  0  0  0  0  0  0  0  0  0  0
    4.8540   25.5282    2.9562 O   0  0  0  0  0  0  0  0  0  0  0  0
    5.7053   23.6448    4.4513 O   0  0  0  0  0  0  0  0  0  0  0  0
    4.7700   25.8177    5.5301 C   0  0  0  0  0  0  0  0  0  0  0  0
    4.8397   25.2034    6.7759 C   0  0  0  0  0  0  0  0  0  0  0  0
    4.1102   25.7461    7.8264 C   0  0  0  0  0  0  0  0  0  0  0  0
    3.2996   26.8639    7.6478 C   0  0  0  0  0  0  0  0  0  0  0  0
    3.2670   27.4934    6.3982 C   0  0  0  0  0  0  0  0  0  0  0  0
    2.5458   28.6774    6.1136 N   0  0  0  0  0  0  0  0  0  0  0  0
    1.4441   29.2001    6.7485 C   0  0  0  0  0  0  0  0  0  0  0  0
    0.7257   28.3519    7.5047 N   0  0  0  0  0  0  0  0  0  0  0  0
   -0.3475   28.8122    8.1370 C   0  0  0  0  0  0  0  0  0  0  0  0
   -1.0195   28.0045    8.9744 O   0  0  0  0  0  0  0  0  0  0  0  0
   -0.5966   26.6233    8.9890 C   0  0  0  0  0  0  0  0  0  0  0  0
   -1.2560   25.7865   10.1051 C   0  0  0  0  0  0  0  0  0  0  0  0
   -1.3373   24.3296    9.6051 C   0  0  0  0  0  0  0  0  0  0  0  0
   -1.7291   23.2826   10.6549 C   0  0  0  0  0  0  0  0  0  0  0  0
   -0.7963   23.3709   11.8652 C   0  0  0  0  0  0  0  0  0  0  0  0
   -0.7949   24.7849   12.4541 C   0  0  0  0  0  0  0  0  0  0  0  0
   -0.4135   25.8301   11.3958 C   0  0  0  0  0  0  0  0  0  0  0  0
    0.6342   25.6449   11.1154 H   0  0  0  0  0  0  0  0  0  0  0  0
   -0.4383   26.8360   11.8278 H   0  0  0  0  0  0  0  0  0  0  0  0
   -1.7898   25.0108   12.8666 H   0  0  0  0  0  0  0  0  0  0  0  0
   -0.0836   24.8381   13.2922 H   0  0  0  0  0  0  0  0  0  0  0  0
    0.2252   23.1038   11.5525 H   0  0  0  0  0  0  0  0  0  0  0  0
   -1.0788   22.6379   12.6290 H   0  0  0  0  0  0  0  0  0  0  0  0
   -2.7728   23.4282   10.9758 H   0  0  0  0  0  0  0  0  0  0  0  0
   -1.6705   22.2762   10.2126 H   0  0  0  0  0  0  0  0  0  0  0  0
   -2.0169   24.2692    8.7470 H   0  0  0  0  0  0  0  0  0  0  0  0
   -0.3373   24.0673    9.2284 H   0  0  0  0  0  0  0  0  0  0  0  0
   -2.2651   26.1681   10.3053 H   0  0  0  0  0  0  0  0  0  0  0  0
    0.4931   26.5800    9.1209 H   0  0  0  0  0  0  0  0  0  0  0  0
   -0.8251   26.1994    8.0060 H   0  0  0  0  0  0  0  0  0  0  0  0
   -0.7492   30.1423    7.9465 C   0  0  0  0  0  0  0  0  0  0  0  0
   -1.8303   30.8836    8.3917 N   0  0  0  0  0  0  0  0  0  0  0  0
   -1.6081   32.0782    7.9282 C   0  0  0  0  0  0  0  0  0  0  0  0
   -0.4477   32.1777    7.1861 N   0  0  0  0  0  0  0  0  0  0  0  0
    0.1114   30.9202    7.1673 C   0  0  0  0  0  0  0  0  0  0  0  0
    1.2041   30.5033    6.5179 N   0  0  0  0  0  0  0  0  0  0  0  0
   -0.0468   33.0301    6.8195 H   0  0  0  0  0  0  0  0  0  0  0  0
   -2.2578   32.9311    8.0847 H   0  0  0  0  0  0  0  0  0  0  0  0
    3.0352   29.3263    5.5067 H   0  0  0  0  0  0  0  0  0  0  0  0
    4.0317   26.9769    5.3445 C   0  0  0  0  0  0  0  0  0  0  0  0
    3.9857   27.4463    4.3670 H   0  0  0  0  0  0  0  0  0  0  0  0
    2.7175   27.2540    8.4787 H   0  0  0  0  0  0  0  0  0  0  0  0
    4.1673   25.2952    8.8114 H   0  0  0  0  0  0  0  0  0  0  0  0
    5.4289   24.3023    6.9053 H   0  0  0  0  0  0  0  0  0  0  0  0
    7.1689   26.6335    3.7588 H   0  0  0  0  0  0  0  0  0  0  0  0
    7.7225   25.4745    4.7755 H   0  0  0  0  0  0  0  0  0  0  0  0
  1  2  1  0
  2  3  2  0
  2  4  2  0
  2  5  1  0
  5  6  2  0
  6  7  1  0
  7  8  2  0
  8  9  1  0
  9 10  1  0
 10 11  1  0
 11 12  2  0
 12 13  1  0
 13 14  1  0
 14 15  1  0
 15 16  1  0
 16 17  1  0
 17 18  1  0
 18 19  1  0
 19 20  1  0
 20 21  1  0
 21 22  1  0
 21 23  1  0
 20 24  1  0
 20 25  1  0
 19 26  1  0
 19 27  1  0
 18 28  1  0
 18 29  1  0
 17 30  1  0
 17 31  1  0
 16 32  1  0
 15 33  1  0
 15 34  1  0
 13 35  2  0
 35 36  1  0
 36 37  2  0
 37 38  1  0
 38 39  1  0
 39 40  2  0
 38 41  1  0
 37 42  1  0
 10 43  1  0
  9 44  2  0
 44 45  1  0
  8 46  1  0
  7 47  1  0
  6 48  1  0
  1 49  1  0
  1 50  1  0
 44  5  1  0
 40 11  1  0
 21 16  1  0
 39 35  1  0
M  END
>  <cnnaffinities>  (9) 
[6.9021, 7.06301]

>  <score>  (9) 
6.9021

>  <index>  (9) 
8

>  <Smiles>  (9) 
N(S(=O)(=O)c1c(c(c(c(N(c2nc(OC(C3(C(C(C(C(C3([H])[H])([H])[H])([H])[H])([H])[H])([H])[H])[H])([H])[H])c3nc(n(c3n2)[H])[H])[H])c1[H])[H])[H])[H])([H])[H]

>  <h>  (9) 
<NA>

>  <Training>  (9) 
True

>  <Success>  (9) 
True

>  <enamine_searched>  (9) 
False

>  <enamine_id>  (9) 
nan

$$$$
lig_ejm_9
     RDKit          3D

 50 53  0  0  0  0  0  0  0  0999 V2000
    7.2920   24.2860    6.4488 C   0  0  0  0  0  0  0  0  0  0  0  0
    5.6821   23.6601    6.9654 S   0  0  0  0  0  4  0  0  0  0  0  0
    5.2937   22.6699    5.9051 O   0  0  0  0  0  0  0  0  0  0  0  0
    4.7729   25.1911    6.7097 C   0  0  0  0  0  0  0  0  0  0  0  0
    4.0780   25.7146    7.7929 C   0  0  0  0  0  0  0  0  0  0  0  0
    3.2862   26.8478    7.6444 C   0  0  0  0  0  0  0  0  0  0  0  0
    3.2442   27.4965    6.4053 C   0  0  0  0  0  0  0  0  0  0  0  0
    2.5659   28.7096    6.1444 N   0  0  0  0  0  0  0  0  0  0  0  0
    1.4555   29.2205    6.7656 C   0  0  0  0  0  0  0  0  0  0  0  0
    0.7455   28.3705    7.5309 N   0  0  0  0  0  0  0  0  0  0  0  0
   -0.3321   28.8215    8.1597 C   0  0  0  0  0  0  0  0  0  0  0  0
   -0.9844   28.0077    9.0047 O   0  0  0  0  0  0  0  0  0  0  0  0
   -0.5933   26.6200    8.9840 C   0  0  0  0  0  0  0  0  0  0  0  0
   -1.2523   25.7881   10.1024 C   0  0  0  0  0  0  0  0  0  0  0  0
   -1.3326   24.3305    9.6022 C   0  0  0  0  0  0  0  0  0  0  0  0
   -1.7308   23.2916   10.6573 C   0  0  0  0  0  0  0  0  0  0  0  0
   -0.7995   23.3752   11.8678 C   0  0  0  0  0  0  0  0  0  0  0  0
   -0.8032   24.7913   12.4507 C   0  0  0  0  0  0  0  0  0  0  0  0
   -0.4103   25.8361   11.3947 C   0  0  0  0  0  0  0  0  0  0  0  0
    0.6376   25.6375   11.1161 H   0  0  0  0  0  0  0  0  0  0  0  0
   -0.4342   26.8436   11.8278 H   0  0  0  0  0  0  0  0  0  0  0  0
   -0.1050   24.8465   13.2964 H   0  0  0  0  0  0  0  0  0  0  0  0
   -1.8001   25.0134   12.8580 H   0  0  0  0  0  0  0  0  0  0  0  0
    0.2218   23.1201   11.5463 H   0  0  0  0  0  0  0  0  0  0  0  0
   -1.0772   22.6366   12.6317 H   0  0  0  0  0  0  0  0  0  0  0  0
   -1.6875   22.2858   10.2186 H   0  0  0  0  0  0  0  0  0  0  0  0
   -2.7716   23.4430   10.9793 H   0  0  0  0  0  0  0  0  0  0  0  0
   -2.0089   24.2689    8.7388 H   0  0  0  0  0  0  0  0  0  0  0  0
   -0.3265   24.0656    9.2389 H   0  0  0  0  0  0  0  0  0  0  0  0
   -2.2626   26.1752   10.2998 H   0  0  0  0  0  0  0  0  0  0  0  0
   -0.8640   26.2177    8.0026 H   0  0  0  0  0  0  0  0  0  0  0  0
    0.4963   26.5483    9.0871 H   0  0  0  0  0  0  0  0  0  0  0  0
   -0.7568   30.1446    7.9564 C   0  0  0  0  0  0  0  0  0  0  0  0
   -1.8383   30.8836    8.4062 N   0  0  0  0  0  0  0  0  0  0  0  0
   -1.6256   32.0759    7.9228 C   0  0  0  0  0  0  0  0  0  0  0  0
   -0.4732   32.1746    7.1694 N   0  0  0  0  0  0  0  0  0  0  0  0
    0.0971   30.9236    7.1604 C   0  0  0  0  0  0  0  0  0  0  0  0
    1.2011   30.5156    6.5266 N   0  0  0  0  0  0  0  0  0  0  0  0
   -0.0767   33.0296    6.7969 H   0  0  0  0  0  0  0  0  0  0  0  0
   -2.2749   32.9266    8.0789 H   0  0  0  0  0  0  0  0  0  0  0  0
    3.0559   29.3530    5.5325 H   0  0  0  0  0  0  0  0  0  0  0  0
    3.9909   26.9814    5.3428 C   0  0  0  0  0  0  0  0  0  0  0  0
    4.7309   25.8220    5.4695 C   0  0  0  0  0  0  0  0  0  0  0  0
    5.2792   25.4178    4.6223 H   0  0  0  0  0  0  0  0  0  0  0  0
    3.9843   27.5085    4.3975 H   0  0  0  0  0  0  0  0  0  0  0  0
    2.7250   27.2363    8.4851 H   0  0  0  0  0  0  0  0  0  0  0  0
    4.1559   25.2309    8.7662 H   0  0  0  0  0  0  0  0  0  0  0  0
    7.3093   24.2643    5.3591 H   0  0  0  0  0  0  0  0  0  0  0  0
    8.0544   23.5880    6.7991 H   0  0  0  0  0  0  0  0  0  0  0  0
    7.4580   25.2813    6.8656 H   0  0  0  0  0  0  0  0  0  0  0  0
  2  1  1  6
  2  3  2  0
  2  4  1  0
  4  5  2  0
  5  6  1  0
  6  7  2  0
  7  8  1  0
  8  9  1  0
  9 10  2  0
 10 11  1  0
 11 12  1  0
 12 13  1  0
 13 14  1  0
 14 15  1  0
 15 16  1  0
 16 17  1  0
 17 18  1  0
 18 19  1  0
 19 20  1  0
 19 21  1  0
 18 22  1  0
 18 23  1  0
 17 24  1  0
 17 25  1  0
 16 26  1  0
 16 27  1  0
 15 28  1  0
 15 29  1  0
 14 30  1  0
 13 31  1  0
 13 32  1  0
 11 33  2  0
 33 34  1  0
 34 35  2  0
 35 36  1  0
 36 37  1  0
 37 38  2  0
 36 39  1  0
 35 40  1  0
  8 41  1  0
  7 42  1  0
 42 43  2  0
 43 44  1  0
 42 45  1  0
  6 46  1  0
  5 47  1  0
  1 48  1  0
  1 49  1  0
  1 50  1  0
 43  4  1  0
 38  9  1  0
 19 14  1  0
 37 33  1  0
M  END
>  <cnnaffinities>  (10) 
[7.3752]

>  <score>  (10) 
7.3752

>  <index>  (10) 
9

>  <Smiles>  (10) 
C([S@](=O)c1c(c(c(N(c2nc(OC(C3(C(C(C(C(C3([H])[H])([H])[H])([H])[H])([H])[H])([H])[H])[H])([H])[H])c3nc(n(c3n2)[H])[H])[H])c(c1[H])[H])[H])[H])([H])([H])[H]

>  <h>  (10) 
<NA>

>  <Training>  (10) 
True

>  <Success>  (10) 
True

>  <enamine_searched>  (10) 
False

>  <enamine_id>  (10) 
nan

$$$$
lig_ejm_10
     RDKit          3D

 56 59  0  0  0  0  0  0  0  0999 V2000
    4.2580   22.4134    5.3359 C   0  0  0  0  0  0  0  0  0  0  0  0
    4.6549   22.5765    6.7307 N   0  0  0  0  0  0  0  0  0  0  0  0
    3.6015   22.3741    7.7198 C   0  0  0  0  0  0  0  0  0  0  0  0
    4.0545   22.3440    8.7107 H   0  0  0  0  0  0  0  0  0  0  0  0
    2.8096   23.1371    7.7062 H   0  0  0  0  0  0  0  0  0  0  0  0
    3.1354   21.4051    7.5287 H   0  0  0  0  0  0  0  0  0  0  0  0
    5.7424   23.8155    7.0464 S   0  0  0  0  0  0  0  0  0  0  0  0
    6.8022   23.7021    6.0572 O   0  0  0  0  0  0  0  0  0  0  0  0
    6.0401   23.8237    8.4652 O   0  0  0  0  0  0  0  0  0  0  0  0
    4.7984   25.2662    6.7458 C   0  0  0  0  0  0  0  0  0  0  0  0
    4.0518   25.7666    7.8051 C   0  0  0  0  0  0  0  0  0  0  0  0
    3.2463   26.8772    7.6225 C   0  0  0  0  0  0  0  0  0  0  0  0
    3.2241   27.5059    6.3760 C   0  0  0  0  0  0  0  0  0  0  0  0
    2.5207   28.6960    6.1034 N   0  0  0  0  0  0  0  0  0  0  0  0
    1.4312   29.2130    6.7510 C   0  0  0  0  0  0  0  0  0  0  0  0
    0.7142   28.3592    7.5070 N   0  0  0  0  0  0  0  0  0  0  0  0
   -0.3587   28.8129    8.1390 C   0  0  0  0  0  0  0  0  0  0  0  0
   -1.0277   27.9985    8.9697 O   0  0  0  0  0  0  0  0  0  0  0  0
   -0.5952   26.6202    8.9892 C   0  0  0  0  0  0  0  0  0  0  0  0
   -1.2539   25.7832   10.1043 C   0  0  0  0  0  0  0  0  0  0  0  0
   -1.3352   24.3281    9.6030 C   0  0  0  0  0  0  0  0  0  0  0  0
   -1.7263   23.2833   10.6532 C   0  0  0  0  0  0  0  0  0  0  0  0
   -0.7959   23.3715   11.8646 C   0  0  0  0  0  0  0  0  0  0  0  0
   -0.7937   24.7855   12.4527 C   0  0  0  0  0  0  0  0  0  0  0  0
   -0.4117   25.8302   11.3950 C   0  0  0  0  0  0  0  0  0  0  0  0
   -0.4393   26.8362   11.8272 H   0  0  0  0  0  0  0  0  0  0  0  0
    0.6377   25.6477   11.1170 H   0  0  0  0  0  0  0  0  0  0  0  0
   -1.7878   25.0118   12.8670 H   0  0  0  0  0  0  0  0  0  0  0  0
   -0.0831   24.8385   13.2907 H   0  0  0  0  0  0  0  0  0  0  0  0
   -1.0823   22.6397   12.6281 H   0  0  0  0  0  0  0  0  0  0  0  0
    0.2259   23.1021   11.5549 H   0  0  0  0  0  0  0  0  0  0  0  0
   -1.6676   22.2780   10.2105 H   0  0  0  0  0  0  0  0  0  0  0  0
   -2.7703   23.4289   10.9726 H   0  0  0  0  0  0  0  0  0  0  0  0
   -2.0169   24.2697    8.7463 H   0  0  0  0  0  0  0  0  0  0  0  0
   -0.3356   24.0673    9.2232 H   0  0  0  0  0  0  0  0  0  0  0  0
   -2.2626   26.1671   10.3038 H   0  0  0  0  0  0  0  0  0  0  0  0
   -0.8187   26.1935    8.0058 H   0  0  0  0  0  0  0  0  0  0  0  0
    0.4930   26.5861    9.1250 H   0  0  0  0  0  0  0  0  0  0  0  0
   -0.7616   30.1437    7.9532 C   0  0  0  0  0  0  0  0  0  0  0  0
   -1.8396   30.8871    8.4014 N   0  0  0  0  0  0  0  0  0  0  0  0
   -1.6108   32.0799    7.9348 C   0  0  0  0  0  0  0  0  0  0  0  0
   -0.4521   32.1771    7.1911 N   0  0  0  0  0  0  0  0  0  0  0  0
    0.1050   30.9231    7.1741 C   0  0  0  0  0  0  0  0  0  0  0  0
    1.2000   30.5152    6.5288 N   0  0  0  0  0  0  0  0  0  0  0  0
   -0.0409   33.0231    6.8167 H   0  0  0  0  0  0  0  0  0  0  0  0
   -2.2497   32.9416    8.0891 H   0  0  0  0  0  0  0  0  0  0  0  0
    3.0274   29.3490    5.5185 H   0  0  0  0  0  0  0  0  0  0  0  0
    3.9958   26.9962    5.3257 C   0  0  0  0  0  0  0  0  0  0  0  0
    4.7709   25.8638    5.4942 C   0  0  0  0  0  0  0  0  0  0  0  0
    5.3800   25.4669    4.6862 H   0  0  0  0  0  0  0  0  0  0  0  0
    3.9756   27.5166    4.3754 H   0  0  0  0  0  0  0  0  0  0  0  0
    2.6756   27.2773    8.4508 H   0  0  0  0  0  0  0  0  0  0  0  0
    4.1301   25.3022    8.7845 H   0  0  0  0  0  0  0  0  0  0  0  0
    5.1588   22.3931    4.7218 H   0  0  0  0  0  0  0  0  0  0  0  0
    3.5775   23.1930    4.9620 H   0  0  0  0  0  0  0  0  0  0  0  0
    3.7551   21.4486    5.2357 H   0  0  0  0  0  0  0  0  0  0  0  0
  1  2  1  0
  2  3  1  0
  3  4  1  0
  3  5  1  0
  3  6  1  0
  2  7  1  0
  7  8  2  0
  7  9  2  0
  7 10  1  0
 10 11  2  0
 11 12  1  0
 12 13  2  0
 13 14  1  0
 14 15  1  0
 15 16  2  0
 16 17  1  0
 17 18  1  0
 18 19  1  0
 19 20  1  0
 20 21  1  0
 21 22  1  0
 22 23  1  0
 23 24  1  0
 24 25  1  0
 25 26  1  0
 25 27  1  0
 24 28  1  0
 24 29  1  0
 23 30  1  0
 23 31  1  0
 22 32  1  0
 22 33  1  0
 21 34  1  0
 21 35  1  0
 20 36  1  0
 19 37  1  0
 19 38  1  0
 17 39  2  0
 39 40  1  0
 40 41  2  0
 41 42  1  0
 42 43  1  0
 43 44  2  0
 42 45  1  0
 41 46  1  0
 14 47  1  0
 13 48  1  0
 48 49  2  0
 49 50  1  0
 48 51  1  0
 12 52  1  0
 11 53  1  0
  1 54  1  0
  1 55  1  0
  1 56  1  0
 49 10  1  0
 44 15  1  0
 25 20  1  0
 43 39  1  0
M  END
>  <cnnaffinities>  (11) 
[7.71301, 7.71319]

>  <score>  (11) 
7.71301

>  <index>  (11) 
10

>  <Smiles>  (11) 
C(N(C([H])([H])[H])S(=O)(=O)c1c(c(c(N(c2nc(OC(C3(C(C(C(C(C3([H])[H])([H])[H])([H])[H])([H])[H])([H])[H])[H])([H])[H])c3nc(n(c3n2)[H])[H])[H])c(c1[H])[H])[H])[H])([H])([H])[H]

>  <h>  (11) 
<NA>

>  <Training>  (11) 
True

>  <Success>  (11) 
True

>  <enamine_searched>  (11) 
False

>  <enamine_id>  (11) 
nan

$$$$
lig_ejm_11
     RDKit          3D

 49 52  0  0  0  0  0  0  0  0999 V2000
    6.2671   23.4825    6.0248 C   0  0  0  0  0  0  0  0  0  0  0  0
    5.5500   24.0741    7.0863 O   0  0  0  0  0  0  0  0  0  0  0  0
    4.8188   25.1833    6.7856 C   0  0  0  0  0  0  0  0  0  0  0  0
    4.0782   25.7303    7.8343 C   0  0  0  0  0  0  0  0  0  0  0  0
    3.2884   26.8505    7.6459 C   0  0  0  0  0  0  0  0  0  0  0  0
    3.2636   27.4860    6.4030 C   0  0  0  0  0  0  0  0  0  0  0  0
    2.5662   28.6867    6.1415 N   0  0  0  0  0  0  0  0  0  0  0  0
    1.4557   29.2006    6.7679 C   0  0  0  0  0  0  0  0  0  0  0  0
    0.7344   28.3477    7.5196 N   0  0  0  0  0  0  0  0  0  0  0  0
   -0.3416   28.8081    8.1520 C   0  0  0  0  0  0  0  0  0  0  0  0
   -1.0018   28.0024    8.9954 O   0  0  0  0  0  0  0  0  0  0  0  0
   -0.5957   26.6172    8.9826 C   0  0  0  0  0  0  0  0  0  0  0  0
   -1.2560   25.7890   10.1014 C   0  0  0  0  0  0  0  0  0  0  0  0
   -1.3366   24.3325    9.6029 C   0  0  0  0  0  0  0  0  0  0  0  0
   -1.7317   23.2907   10.6556 C   0  0  0  0  0  0  0  0  0  0  0  0
   -0.7972   23.3751   11.8655 C   0  0  0  0  0  0  0  0  0  0  0  0
   -0.8005   24.7896   12.4546 C   0  0  0  0  0  0  0  0  0  0  0  0
   -0.4126   25.8344   11.3964 C   0  0  0  0  0  0  0  0  0  0  0  0
   -0.4329   26.8389   11.8332 H   0  0  0  0  0  0  0  0  0  0  0  0
    0.6381   25.6405   11.1262 H   0  0  0  0  0  0  0  0  0  0  0  0
   -0.0951   24.8438   13.2980 H   0  0  0  0  0  0  0  0  0  0  0  0
   -1.7992   25.0135   12.8611 H   0  0  0  0  0  0  0  0  0  0  0  0
   -1.0779   22.6391   12.6283 H   0  0  0  0  0  0  0  0  0  0  0  0
    0.2254   23.1114   11.5488 H   0  0  0  0  0  0  0  0  0  0  0  0
   -2.7739   23.4428   10.9800 H   0  0  0  0  0  0  0  0  0  0  0  0
   -1.6758   22.2851   10.2127 H   0  0  0  0  0  0  0  0  0  0  0  0
   -2.0118   24.2673    8.7401 H   0  0  0  0  0  0  0  0  0  0  0  0
   -0.3331   24.0648    9.2358 H   0  0  0  0  0  0  0  0  0  0  0  0
   -2.2663   26.1751   10.3002 H   0  0  0  0  0  0  0  0  0  0  0  0
   -0.8463   26.2128    7.9938 H   0  0  0  0  0  0  0  0  0  0  0  0
    0.4938   26.5421    9.1030 H   0  0  0  0  0  0  0  0  0  0  0  0
   -0.7481   30.1380    7.9516 C   0  0  0  0  0  0  0  0  0  0  0  0
   -1.8270   30.8766    8.3978 N   0  0  0  0  0  0  0  0  0  0  0  0
   -1.6111   32.0684    7.9202 C   0  0  0  0  0  0  0  0  0  0  0  0
   -0.4612   32.1646    7.1654 N   0  0  0  0  0  0  0  0  0  0  0  0
    0.1106   30.9129    7.1603 C   0  0  0  0  0  0  0  0  0  0  0  0
    1.2122   30.4971    6.5298 N   0  0  0  0  0  0  0  0  0  0  0  0
   -0.0600   33.0190    6.8032 H   0  0  0  0  0  0  0  0  0  0  0  0
   -2.2503   32.9318    8.0768 H   0  0  0  0  0  0  0  0  0  0  0  0
    3.0608   29.3204    5.5207 H   0  0  0  0  0  0  0  0  0  0  0  0
    4.0307   26.9575    5.3664 C   0  0  0  0  0  0  0  0  0  0  0  0
    4.7927   25.8062    5.5386 C   0  0  0  0  0  0  0  0  0  0  0  0
    5.3928   25.4388    4.7123 H   0  0  0  0  0  0  0  0  0  0  0  0
    4.0165   27.4444    4.3927 H   0  0  0  0  0  0  0  0  0  0  0  0
    2.6998   27.2331    8.4751 H   0  0  0  0  0  0  0  0  0  0  0  0
    4.1628   25.2632    8.8116 H   0  0  0  0  0  0  0  0  0  0  0  0
    7.0371   24.1658    5.6444 H   0  0  0  0  0  0  0  0  0  0  0  0
    5.5903   23.1959    5.2098 H   0  0  0  0  0  0  0  0  0  0  0  0
    6.7515   22.5837    6.4098 H   0  0  0  0  0  0  0  0  0  0  0  0
  1  2  1  0
  2  3  1  0
  3  4  2  0
  4  5  1  0
  5  6  2  0
  6  7  1  0
  7  8  1  0
  8  9  2  0
  9 10  1  0
 10 11  1  0
 11 12  1  0
 12 13  1  0
 13 14  1  0
 14 15  1  0
 15 16  1  0
 16 17  1  0
 17 18  1  0
 18 19  1  0
 18 20  1  0
 17 21  1  0
 17 22  1  0
 16 23  1  0
 16 24  1  0
 15 25  1  0
 15 26  1  0
 14 27  1  0
 14 28  1  0
 13 29  1  0
 12 30  1  0
 12 31  1  0
 10 32  2  0
 32 33  1  0
 33 34  2  0
 34 35  1  0
 35 36  1  0
 36 37  2  0
 35 38  1  0
 34 39  1  0
  7 40  1  0
  6 41  1  0
 41 42  2  0
 42 43  1  0
 41 44  1  0
  5 45  1  0
  4 46  1  0
  1 47  1  0
  1 48  1  0
  1 49  1  0
 42  3  1  0
 37  8  1  0
 18 13  1  0
 36 32  1  0
M  END
>  <cnnaffinities>  (12) 
[7.26585]

>  <score>  (12) 
7.26585

>  <index>  (12) 
11

>  <Smiles>  (12) 
C(Oc1c(c(c(N(c2nc(OC(C3(C(C(C(C(C3([H])[H])([H])[H])([H])[H])([H])[H])([H])[H])[H])([H])[H])c3nc(n(c3n2)[H])[H])[H])c(c1[H])[H])[H])[H])([H])([H])[H]

>  <h>  (12) 
<NA>

>  <Training>  (12) 
True

>  <Success>  (12) 
True

>  <enamine_searched>  (12) 
False

>  <enamine_id>  (12) 
nan

$$$$
lig_ejm_12
     RDKit          3D

 46 49  0  0  0  0  0  0  0  0999 V2000
    5.5759   24.1012    6.9597 O   0  0  0  0  0  0  0  0  0  0  0  0
    4.8041   25.2154    6.8113 C   0  0  0  0  0  0  0  0  0  0  0  0
    4.0535   25.7539    7.8511 C   0  0  0  0  0  0  0  0  0  0  0  0
    3.2827   26.8960    7.6533 C   0  0  0  0  0  0  0  0  0  0  0  0
    3.2622   27.5373    6.4160 C   0  0  0  0  0  0  0  0  0  0  0  0
    2.5845   28.7468    6.1488 N   0  0  0  0  0  0  0  0  0  0  0  0
    1.4611   29.2212    6.7775 C   0  0  0  0  0  0  0  0  0  0  0  0
    0.7818   28.3597    7.5392 N   0  0  0  0  0  0  0  0  0  0  0  0
   -0.2601   28.7588    8.2590 C   0  0  0  0  0  0  0  0  0  0  0  0
   -0.7391   27.8675    9.1614 O   0  0  0  0  0  0  0  0  0  0  0  0
   -0.2179   26.5096    8.9463 C   0  0  0  0  0  0  0  0  0  0  0  0
   -0.4205   25.4130   10.0055 C   0  0  0  0  0  0  0  0  0  0  0  0
   -1.5655   24.4543    9.6231 C   0  0  0  0  0  0  0  0  0  0  0  0
   -1.8115   23.3542   10.6898 C   0  0  0  0  0  0  0  0  0  0  0  0
   -0.8014   23.4222   11.8412 C   0  0  0  0  0  0  0  0  0  0  0  0
   -0.8542   24.8250   12.4563 C   0  0  0  0  0  0  0  0  0  0  0  0
   -0.5591   25.9499   11.4256 C   0  0  0  0  0  0  0  0  0  0  0  0
    0.3676   26.4725   11.6893 H   0  0  0  0  0  0  0  0  0  0  0  0
   -1.3665   26.6913   11.4395 H   0  0  0  0  0  0  0  0  0  0  0  0
   -0.1734   24.8931   13.3124 H   0  0  0  0  0  0  0  0  0  0  0  0
   -1.8631   24.9610   12.8682 H   0  0  0  0  0  0  0  0  0  0  0  0
   -1.0190   22.6547   12.5981 H   0  0  0  0  0  0  0  0  0  0  0  0
    0.2132   23.1906   11.4881 H   0  0  0  0  0  0  0  0  0  0  0  0
   -2.8144   23.4805   11.1197 H   0  0  0  0  0  0  0  0  0  0  0  0
   -1.8008   22.3572   10.2362 H   0  0  0  0  0  0  0  0  0  0  0  0
   -2.4921   25.0252    9.4676 H   0  0  0  0  0  0  0  0  0  0  0  0
   -1.3045   23.9943    8.6614 H   0  0  0  0  0  0  0  0  0  0  0  0
    0.5010   24.7937    9.9589 H   0  0  0  0  0  0  0  0  0  0  0  0
   -0.6812   26.1739    8.0153 H   0  0  0  0  0  0  0  0  0  0  0  0
    0.8535   26.6134    8.8280 H   0  0  0  0  0  0  0  0  0  0  0  0
   -0.7583   30.0760    8.0483 C   0  0  0  0  0  0  0  0  0  0  0  0
   -1.8385   30.8305    8.4939 N   0  0  0  0  0  0  0  0  0  0  0  0
   -1.6600   32.0059    7.9619 C   0  0  0  0  0  0  0  0  0  0  0  0
   -0.5391   32.0899    7.1666 N   0  0  0  0  0  0  0  0  0  0  0  0
    0.0480   30.8561    7.1963 C   0  0  0  0  0  0  0  0  0  0  0  0
    1.1504   30.4985    6.5396 N   0  0  0  0  0  0  0  0  0  0  0  0
   -0.1409   32.9243    6.7535 H   0  0  0  0  0  0  0  0  0  0  0  0
   -2.2973   32.8731    8.1023 H   0  0  0  0  0  0  0  0  0  0  0  0
    3.0455   29.3988    5.5202 H   0  0  0  0  0  0  0  0  0  0  0  0
    4.0178   26.9825    5.3772 C   0  0  0  0  0  0  0  0  0  0  0  0
    4.7764   25.8364    5.5620 C   0  0  0  0  0  0  0  0  0  0  0  0
    5.3765   25.4346    4.7534 H   0  0  0  0  0  0  0  0  0  0  0  0
    4.0066   27.4616    4.4047 H   0  0  0  0  0  0  0  0  0  0  0  0
    2.7118   27.2914    8.4834 H   0  0  0  0  0  0  0  0  0  0  0  0
    4.0697   25.2963    8.8393 H   0  0  0  0  0  0  0  0  0  0  0  0
    5.4979   23.7864    7.8705 H   0  0  0  0  0  0  0  0  0  0  0  0
  1  2  1  0
  2  3  2  0
  3  4  1  0
  4  5  2  0
  5  6  1  0
  6  7  1  0
  7  8  2  0
  8  9  1  0
  9 10  1  0
 10 11  1  0
 11 12  1  0
 12 13  1  0
 13 14  1  0
 14 15  1  0
 15 16  1  0
 16 17  1  0
 17 18  1  0
 17 19  1  0
 16 20  1  0
 16 21  1  0
 15 22  1  0
 15 23  1  0
 14 24  1  0
 14 25  1  0
 13 26  1  0
 13 27  1  0
 12 28  1  0
 11 29  1  0
 11 30  1  0
  9 31  2  0
 31 32  1  0
 32 33  2  0
 33 34  1  0
 34 35  1  0
 35 36  2  0
 34 37  1  0
 33 38  1  0
  6 39  1  0
  5 40  1  0
 40 41  2  0
 41 42  1  0
 40 43  1  0
  4 44  1  0
  3 45  1  0
  1 46  1  0
 41  2  1  0
 36  7  1  0
 17 12  1  0
 35 31  1  0
M  END
>  <cnnaffinities>  (13) 
[7.16134]

>  <score>  (13) 
7.16134

>  <index>  (13) 
12

>  <Smiles>  (13) 
O(c1c(c(c(N(c2nc(OC(C3(C(C(C(C(C3([H])[H])([H])[H])([H])[H])([H])[H])([H])[H])[H])([H])[H])c3nc(n(c3n2)[H])[H])[H])c(c1[H])[H])[H])[H])[H]

>  <h>  (13) 
<NA>

>  <Training>  (13) 
True

>  <Success>  (13) 
True

>  <enamine_searched>  (13) 
False

>  <enamine_id>  (13) 
nan

$$$$
lig_ejm_13
     RDKit          3D

 49 52  0  0  0  0  0  0  0  0999 V2000
    6.8371   25.4814    4.2546 O   0  0  0  0  0  0  0  0  0  0  0  0
    5.4512   25.1919    4.2985 C   0  0  0  0  0  0  0  0  0  0  0  0
    4.7482   25.7969    5.4912 C   0  0  0  0  0  0  0  0  0  0  0  0
    4.8630   25.2280    6.7586 C   0  0  0  0  0  0  0  0  0  0  0  0
    4.1284   25.7512    7.8171 C   0  0  0  0  0  0  0  0  0  0  0  0
    3.3110   26.8653    7.6399 C   0  0  0  0  0  0  0  0  0  0  0  0
    3.2984   27.5229    6.4061 C   0  0  0  0  0  0  0  0  0  0  0  0
    2.6358   28.7585    6.1942 N   0  0  0  0  0  0  0  0  0  0  0  0
    1.5036   29.2455    6.7986 C   0  0  0  0  0  0  0  0  0  0  0  0
    0.7984   28.3901    7.5613 N   0  0  0  0  0  0  0  0  0  0  0  0
   -0.2844   28.8224    8.1944 C   0  0  0  0  0  0  0  0  0  0  0  0
   -0.8934   28.0039    9.0645 O   0  0  0  0  0  0  0  0  0  0  0  0
   -0.5814   26.6014    8.9623 C   0  0  0  0  0  0  0  0  0  0  0  0
   -1.2308   25.7877   10.0908 C   0  0  0  0  0  0  0  0  0  0  0  0
   -1.3228   24.3326    9.5949 C   0  0  0  0  0  0  0  0  0  0  0  0
   -1.7350   23.3182   10.6603 C   0  0  0  0  0  0  0  0  0  0  0  0
   -0.8063   23.3966   11.8683 C   0  0  0  0  0  0  0  0  0  0  0  0
   -0.8193   24.8126   12.4426 C   0  0  0  0  0  0  0  0  0  0  0  0
   -0.4006   25.8496   11.3904 C   0  0  0  0  0  0  0  0  0  0  0  0
   -0.4245   26.8599   11.8214 H   0  0  0  0  0  0  0  0  0  0  0  0
    0.6502   25.6382   11.1284 H   0  0  0  0  0  0  0  0  0  0  0  0
   -0.1496   24.8762   13.3053 H   0  0  0  0  0  0  0  0  0  0  0  0
   -1.8220   25.0313   12.8311 H   0  0  0  0  0  0  0  0  0  0  0  0
    0.2142   23.1540   11.5416 H   0  0  0  0  0  0  0  0  0  0  0  0
   -1.0833   22.6524   12.6275 H   0  0  0  0  0  0  0  0  0  0  0  0
   -1.7245   22.3145   10.2263 H   0  0  0  0  0  0  0  0  0  0  0  0
   -2.7670   23.4956   10.9872 H   0  0  0  0  0  0  0  0  0  0  0  0
   -0.3162   24.0578    9.2384 H   0  0  0  0  0  0  0  0  0  0  0  0
   -1.9963   24.2721    8.7265 H   0  0  0  0  0  0  0  0  0  0  0  0
   -2.2352   26.1972   10.2720 H   0  0  0  0  0  0  0  0  0  0  0  0
   -0.9363   26.2480    7.9863 H   0  0  0  0  0  0  0  0  0  0  0  0
    0.5064   26.4674    8.9972 H   0  0  0  0  0  0  0  0  0  0  0  0
   -0.7562   30.1292    7.9835 C   0  0  0  0  0  0  0  0  0  0  0  0
   -1.8317   30.8781    8.4458 N   0  0  0  0  0  0  0  0  0  0  0  0
   -1.6364   32.0505    7.9134 C   0  0  0  0  0  0  0  0  0  0  0  0
   -0.5156   32.1363    7.1177 N   0  0  0  0  0  0  0  0  0  0  0  0
    0.0732   30.8998    7.1567 C   0  0  0  0  0  0  0  0  0  0  0  0
    1.1994   30.5265    6.5418 N   0  0  0  0  0  0  0  0  0  0  0  0
   -0.1265   32.9782    6.7188 H   0  0  0  0  0  0  0  0  0  0  0  0
   -2.2573   32.9206    8.0604 H   0  0  0  0  0  0  0  0  0  0  0  0
    3.0510   29.3934    5.5202 H   0  0  0  0  0  0  0  0  0  0  0  0
    4.0102   26.9647    5.3362 C   0  0  0  0  0  0  0  0  0  0  0  0
    3.9750   27.4420    4.3597 H   0  0  0  0  0  0  0  0  0  0  0  0
    2.6965   27.2325    8.4552 H   0  0  0  0  0  0  0  0  0  0  0  0
    4.1720   25.2774    8.7948 H   0  0  0  0  0  0  0  0  0  0  0  0
    5.5085   24.3624    6.8940 H   0  0  0  0  0  0  0  0  0  0  0  0
    4.9517   25.5216    3.3724 H   0  0  0  0  0  0  0  0  0  0  0  0
    5.3734   24.0989    4.3488 H   0  0  0  0  0  0  0  0  0  0  0  0
    6.9683   26.3554    4.6593 H   0  0  0  0  0  0  0  0  0  0  0  0
  1  2  1  0
  2  3  1  0
  3  4  2  0
  4  5  1  0
  5  6  2  0
  6  7  1  0
  7  8  1  0
  8  9  1  0
  9 10  2  0
 10 11  1  0
 11 12  1  0
 12 13  1  0
 13 14  1  0
 14 15  1  0
 15 16  1  0
 16 17  1  0
 17 18  1  0
 18 19  1  0
 19 20  1  0
 19 21  1  0
 18 22  1  0
 18 23  1  0
 17 24  1  0
 17 25  1  0
 16 26  1  0
 16 27  1  0
 15 28  1  0
 15 29  1  0
 14 30  1  0
 13 31  1  0
 13 32  1  0
 11 33  2  0
 33 34  1  0
 34 35  2  0
 35 36  1  0
 36 37  1  0
 37 38  2  0
 36 39  1  0
 35 40  1  0
  8 41  1  0
  7 42  2  0
 42 43  1  0
  6 44  1  0
  5 45  1  0
  4 46  1  0
  2 47  1  0
  2 48  1  0
  1 49  1  0
 42  3  1  0
 38  9  1  0
 19 14  1  0
 37 33  1  0
M  END
>  <cnnaffinities>  (14) 
[7.02173]

>  <score>  (14) 
7.02173

>  <index>  (14) 
13

>  <Smiles>  (14) 
O(C(c1c(c(c(c(N(c2nc(OC(C3(C(C(C(C(C3([H])[H])([H])[H])([H])[H])([H])[H])([H])[H])[H])([H])[H])c3nc(n(c3n2)[H])[H])[H])c1[H])[H])[H])[H])([H])[H])[H]

>  <h>  (14) 
<NA>

>  <Training>  (14) 
True

>  <Success>  (14) 
True

>  <enamine_searched>  (14) 
False

>  <enamine_id>  (14) 
nan

$$$$
lig_ejm_14
     RDKit          3D

 54 57  0  0  0  0  0  0  0  0999 V2000
    3.1047   25.2506    9.9311 C   0  0  0  0  0  0  0  0  0  0  0  0
    4.1532   25.1006    9.0023 O   0  0  0  0  0  0  0  0  0  0  0  0
    4.0205   25.7224    7.8090 C   0  0  0  0  0  0  0  0  0  0  0  0
    3.1962   26.8281    7.6122 C   0  0  0  0  0  0  0  0  0  0  0  0
    3.2314   27.5108    6.3956 C   0  0  0  0  0  0  0  0  0  0  0  0
    2.5880   28.7450    6.1763 N   0  0  0  0  0  0  0  0  0  0  0  0
    1.4717   29.2481    6.7896 C   0  0  0  0  0  0  0  0  0  0  0  0
    0.7650   28.3923    7.5503 N   0  0  0  0  0  0  0  0  0  0  0  0
   -0.3090   28.8317    8.1892 C   0  0  0  0  0  0  0  0  0  0  0  0
   -0.9213   28.0086    9.0532 O   0  0  0  0  0  0  0  0  0  0  0  0
   -0.5873   26.6085    8.9791 C   0  0  0  0  0  0  0  0  0  0  0  0
   -1.2492   25.7881   10.1023 C   0  0  0  0  0  0  0  0  0  0  0  0
   -1.3313   24.3300    9.6031 C   0  0  0  0  0  0  0  0  0  0  0  0
   -1.7378   23.3061   10.6655 C   0  0  0  0  0  0  0  0  0  0  0  0
   -0.8089   23.3853   11.8745 C   0  0  0  0  0  0  0  0  0  0  0  0
   -0.8329   24.7979   12.4599 C   0  0  0  0  0  0  0  0  0  0  0  0
   -0.4322   25.8537   11.4151 C   0  0  0  0  0  0  0  0  0  0  0  0
    0.6280   25.6673   11.1755 H   0  0  0  0  0  0  0  0  0  0  0  0
   -0.4863   26.8589   11.8561 H   0  0  0  0  0  0  0  0  0  0  0  0
   -1.8331   25.0050   12.8614 H   0  0  0  0  0  0  0  0  0  0  0  0
   -0.1511   24.8561   13.3155 H   0  0  0  0  0  0  0  0  0  0  0  0
   -1.0749   22.6326   12.6307 H   0  0  0  0  0  0  0  0  0  0  0  0
    0.2142   23.1525   11.5429 H   0  0  0  0  0  0  0  0  0  0  0  0
   -1.7114   22.3031   10.2287 H   0  0  0  0  0  0  0  0  0  0  0  0
   -2.7739   23.4687   10.9887 H   0  0  0  0  0  0  0  0  0  0  0  0
   -0.3213   24.0562    9.2503 H   0  0  0  0  0  0  0  0  0  0  0  0
   -2.0035   24.2679    8.7338 H   0  0  0  0  0  0  0  0  0  0  0  0
   -2.2595   26.1870   10.2778 H   0  0  0  0  0  0  0  0  0  0  0  0
    0.4986   26.4885    9.0503 H   0  0  0  0  0  0  0  0  0  0  0  0
   -0.9038   26.2414    7.9946 H   0  0  0  0  0  0  0  0  0  0  0  0
   -0.7614   30.1460    7.9779 C   0  0  0  0  0  0  0  0  0  0  0  0
   -1.8449   30.8895    8.4260 N   0  0  0  0  0  0  0  0  0  0  0  0
   -1.6401   32.0661    7.9100 C   0  0  0  0  0  0  0  0  0  0  0  0
   -0.5047   32.1590    7.1340 N   0  0  0  0  0  0  0  0  0  0  0  0
    0.0800   30.9206    7.1633 C   0  0  0  0  0  0  0  0  0  0  0  0
    1.2002   30.5366    6.5450 N   0  0  0  0  0  0  0  0  0  0  0  0
   -0.1011   33.0053    6.7493 H   0  0  0  0  0  0  0  0  0  0  0  0
   -2.2687   32.9328    8.0604 H   0  0  0  0  0  0  0  0  0  0  0  0
    3.0593   29.3817    5.5469 H   0  0  0  0  0  0  0  0  0  0  0  0
    4.0022   27.0118    5.3406 C   0  0  0  0  0  0  0  0  0  0  0  0
    4.7567   25.8654    5.5103 C   0  0  0  0  0  0  0  0  0  0  0  0
    4.7654   25.2170    6.7397 C   0  0  0  0  0  0  0  0  0  0  0  0
    5.7905   23.8115    6.9927 S   0  0  0  0  0  0  0  0  0  0  0  0
    6.6999   24.1056    8.0777 O   0  0  0  0  0  0  0  0  0  0  0  0
    6.3019   23.3703    5.7032 O   0  0  0  0  0  0  0  0  0  0  0  0
    4.6899   22.6801    7.5539 N   0  0  0  0  0  0  0  0  0  0  0  0
    4.0760   22.3758    6.8071 H   0  0  0  0  0  0  0  0  0  0  0  0
    5.1711   21.9218    8.0295 H   0  0  0  0  0  0  0  0  0  0  0  0
    5.3426   25.4709    4.6858 H   0  0  0  0  0  0  0  0  0  0  0  0
    3.9878   27.5411    4.3949 H   0  0  0  0  0  0  0  0  0  0  0  0
    2.5627   27.1974    8.4046 H   0  0  0  0  0  0  0  0  0  0  0  0
    3.3165   24.5979   10.7839 H   0  0  0  0  0  0  0  0  0  0  0  0
    2.1541   24.9498    9.4756 H   0  0  0  0  0  0  0  0  0  0  0  0
    3.0420   26.2892   10.2828 H   0  0  0  0  0  0  0  0  0  0  0  0
  1  2  1  0
  2  3  1  0
  3  4  2  0
  4  5  1  0
  5  6  1  0
  6  7  1  0
  7  8  2  0
  8  9  1  0
  9 10  1  0
 10 11  1  0
 11 12  1  0
 12 13  1  0
 13 14  1  0
 14 15  1  0
 15 16  1  0
 16 17  1  0
 17 18  1  0
 17 19  1  0
 16 20  1  0
 16 21  1  0
 15 22  1  0
 15 23  1  0
 14 24  1  0
 14 25  1  0
 13 26  1  0
 13 27  1  0
 12 28  1  0
 11 29  1  0
 11 30  1  0
  9 31  2  0
 31 32  1  0
 32 33  2  0
 33 34  1  0
 34 35  1  0
 35 36  2  0
 34 37  1  0
 33 38  1  0
  6 39  1  0
  5 40  2  0
 40 41  1  0
 41 42  2  0
 42 43  1  0
 43 44  2  0
 43 45  2  0
 43 46  1  0
 46 47  1  0
 46 48  1  0
 41 49  1  0
 40 50  1  0
  4 51  1  0
  1 52  1  0
  1 53  1  0
  1 54  1  0
 42  3  1  0
 36  7  1  0
 17 12  1  0
 35 31  1  0
M  END
>  <cnnaffinities>  (15) 
[7.15405, 7.24671, 7.24654]

>  <score>  (15) 
7.15405

>  <index>  (15) 
14

>  <Smiles>  (15) 
C(Oc1c(c(N(c2nc(OC(C3(C(C(C(C(C3([H])[H])([H])[H])([H])[H])([H])[H])([H])[H])[H])([H])[H])c3nc(n(c3n2)[H])[H])[H])c(c(c1S(=O)(=O)N([H])[H])[H])[H])[H])([H])([H])[H]

>  <h>  (15) 
<NA>

>  <Training>  (15) 
True

>  <Success>  (15) 
True

>  <enamine_searched>  (15) 
False

>  <enamine_id>  (15) 
nan

$$$$
lig_ejm_15
     RDKit          3D

 45 48  0  0  0  0  0  0  0  0999 V2000
    4.8255   25.2090    6.7919 C   0  0  0  0  0  0  0  0  0  0  0  0
    4.0830   25.7503    7.8343 C   0  0  0  0  0  0  0  0  0  0  0  0
    3.2762   26.8711    7.6530 C   0  0  0  0  0  0  0  0  0  0  0  0
    3.2394   27.4857    6.3965 C   0  0  0  0  0  0  0  0  0  0  0  0
    2.5100   28.6616    6.0806 N   0  0  0  0  0  0  0  0  0  0  0  0
    1.4215   29.1884    6.7353 C   0  0  0  0  0  0  0  0  0  0  0  0
    0.7045   28.3440    7.4977 N   0  0  0  0  0  0  0  0  0  0  0  0
   -0.3739   28.8049    8.1232 C   0  0  0  0  0  0  0  0  0  0  0  0
   -1.0632   27.9942    8.9445 O   0  0  0  0  0  0  0  0  0  0  0  0
   -0.6042   26.6269    9.0076 C   0  0  0  0  0  0  0  0  0  0  0  0
   -1.2590   25.7737   10.1154 C   0  0  0  0  0  0  0  0  0  0  0  0
   -1.3406   24.3207    9.6052 C   0  0  0  0  0  0  0  0  0  0  0  0
   -1.7208   23.2713   10.6531 C   0  0  0  0  0  0  0  0  0  0  0  0
   -0.7963   23.3644   11.8666 C   0  0  0  0  0  0  0  0  0  0  0  0
   -0.7852   24.7779   12.4513 C   0  0  0  0  0  0  0  0  0  0  0  0
   -0.4151   25.8266   11.3990 C   0  0  0  0  0  0  0  0  0  0  0  0
   -0.4497   26.8370   11.8234 H   0  0  0  0  0  0  0  0  0  0  0  0
    0.6284   25.6529   11.1021 H   0  0  0  0  0  0  0  0  0  0  0  0
   -0.0689   24.8289   13.2807 H   0  0  0  0  0  0  0  0  0  0  0  0
   -1.7730   25.0057   12.8719 H   0  0  0  0  0  0  0  0  0  0  0  0
   -1.0839   22.6343   12.6305 H   0  0  0  0  0  0  0  0  0  0  0  0
    0.2226   23.0929   11.5590 H   0  0  0  0  0  0  0  0  0  0  0  0
   -2.7656   23.4068   10.9647 H   0  0  0  0  0  0  0  0  0  0  0  0
   -1.6613   22.2680   10.2104 H   0  0  0  0  0  0  0  0  0  0  0  0
   -2.0286   24.2735    8.7517 H   0  0  0  0  0  0  0  0  0  0  0  0
   -0.3435   24.0718    9.2148 H   0  0  0  0  0  0  0  0  0  0  0  0
   -2.2660   26.1565   10.3141 H   0  0  0  0  0  0  0  0  0  0  0  0
    0.4798   26.6474    9.1512 H   0  0  0  0  0  0  0  0  0  0  0  0
   -0.7943   26.1849    8.0284 H   0  0  0  0  0  0  0  0  0  0  0  0
   -0.7700   30.1429    7.9481 C   0  0  0  0  0  0  0  0  0  0  0  0
   -1.8417   30.8997    8.3880 N   0  0  0  0  0  0  0  0  0  0  0  0
   -1.5946   32.0934    7.9356 C   0  0  0  0  0  0  0  0  0  0  0  0
   -0.4239   32.1936    7.2156 N   0  0  0  0  0  0  0  0  0  0  0  0
    0.1093   30.9218    7.1866 C   0  0  0  0  0  0  0  0  0  0  0  0
    1.1883   30.4899    6.5261 N   0  0  0  0  0  0  0  0  0  0  0  0
   -0.0226   33.0456    6.8414 H   0  0  0  0  0  0  0  0  0  0  0  0
   -2.2609   32.9286    8.0959 H   0  0  0  0  0  0  0  0  0  0  0  0
    3.0164   29.3349    5.5198 H   0  0  0  0  0  0  0  0  0  0  0  0
    4.0144   26.9650    5.3598 C   0  0  0  0  0  0  0  0  0  0  0  0
    4.7836   25.8269    5.5449 C   0  0  0  0  0  0  0  0  0  0  0  0
    5.3697   25.4449    4.7183 H   0  0  0  0  0  0  0  0  0  0  0  0
    3.9968   27.4855    4.4062 H   0  0  0  0  0  0  0  0  0  0  0  0
    2.7151   27.2744    8.4930 H   0  0  0  0  0  0  0  0  0  0  0  0
    4.1480   25.2969    8.8195 H   0  0  0  0  0  0  0  0  0  0  0  0
    5.4288   24.3187    6.9409 H   0  0  0  0  0  0  0  0  0  0  0  0
  1  2  2  0
  2  3  1  0
  3  4  2  0
  4  5  1  0
  5  6  1  0
  6  7  2  0
  7  8  1  0
  8  9  1  0
  9 10  1  0
 10 11  1  0
 11 12  1  0
 12 13  1  0
 13 14  1  0
 14 15  1  0
 15 16  1  0
 16 17  1  0
 16 18  1  0
 15 19  1  0
 15 20  1  0
 14 21  1  0
 14 22  1  0
 13 23  1  0
 13 24  1  0
 12 25  1  0
 12 26  1  0
 11 27  1  0
 10 28  1  0
 10 29  1  0
  8 30  2  0
 30 31  1  0
 31 32  2  0
 32 33  1  0
 33 34  1  0
 34 35  2  0
 33 36  1  0
 32 37  1  0
  5 38  1  0
  4 39  1  0
 39 40  2  0
 40 41  1  0
 39 42  1  0
  3 43  1  0
  2 44  1  0
  1 45  1  0
 40  1  1  0
 35  6  1  0
 16 11  1  0
 34 30  1  0
M  END
>  <cnnaffinities>  (16) 
[6.95055]

>  <score>  (16) 
6.95055

>  <index>  (16) 
15

>  <Smiles>  (16) 
c1(c(c(c(N(c2nc(OC(C3(C(C(C(C(C3([H])[H])([H])[H])([H])[H])([H])[H])([H])[H])[H])([H])[H])c3nc(n(c3n2)[H])[H])[H])c(c1[H])[H])[H])[H])[H]

>  <h>  (16) 
<NA>

>  <Training>  (16) 
True

>  <Success>  (16) 
True

>  <enamine_searched>  (16) 
False

>  <enamine_id>  (16) 
nan

$$$$
